@<TRIPOS>MOLECULE
MOL
   38    40     1     0     0
SMALL
No Charge or Current Charge


@<TRIPOS>ATOM
      1 C1           9.4180    35.9130    18.4250 cc         1 MOL       0.000000
      2 C2           8.9210    36.9850    19.2540 cc         1 MOL       0.000000
      3 C3           9.6880    37.8640    20.0670 cd         1 MOL       0.000000
      4 C4          11.0860    37.6420    20.0970 cd         1 MOL       0.000000
      5 C5          11.9140    38.3820    20.9330 cc         1 MOL       0.000000
      6 C6          13.3250    38.1320    21.0850 cc         1 MOL       0.000000
      7 C7          13.7510    36.9910    20.2560 cc         1 MOL       0.000000
      8 C8          12.9830    36.2090    19.4200 cd         1 MOL       0.000000
      9 C9          11.6640    36.5470    19.3420 cd         1 MOL       0.000000
     10 C10         10.8410    35.7650    18.5730 cc         1 MOL       0.000000
     11 C11         14.2310    38.8790    21.9450 c2         1 MOL       0.000000
     12 O1          15.3790    39.0390    21.5460 o          1 MOL       0.000000
     13 N1          13.7720    39.1340    23.2130 n          1 MOL       0.000000
     14 H1          12.8100    38.8590    23.4570 hn         1 MOL       0.000000
     15 C12         14.5530    39.7450    24.1700 ca         1 MOL       0.000000
     16 C13         15.0930    38.8280    25.0780 ca         1 MOL       0.000000
     17 C14         15.8410    39.2920    26.1610 ca         1 MOL       0.000000
     18 C15         16.0910    40.6970    26.2570 ca         1 MOL       0.000000
     19 C16         15.6420    41.6130    25.3100 ca         1 MOL       0.000000
     20 C17         14.8660    41.1300    24.2440 ca         1 MOL       0.000000
     21 C18          8.5720    35.0660    17.5290 c2         1 MOL       0.000000
     22 N2           9.1580    33.9080    17.1180 nh         1 MOL       0.000000
     23 H2          10.1050    33.6670    17.4420 hn         1 MOL       0.000000
     24 H3           8.6540    33.2740    16.4810 hn         1 MOL       0.000000
     25 N3           7.3210    35.4770    17.1560 nh         1 MOL       0.000000
     26 H4           6.5190    34.8380    17.2510 hn         1 MOL       0.000000
     27 H5           7.1810    36.4250    16.7790 hn         1 MOL       0.000000
     28 H6           7.8990    37.1290    19.2570 ha         1 MOL       0.000000
     29 H7           9.2480    38.6250    20.6080 ha         1 MOL       0.000000
     30 H8          11.4950    39.1540    21.4750 ha         1 MOL       0.000000
     31 H9          14.7520    36.7460    20.3080 ha         1 MOL       0.000000
     32 H10         13.3800    35.4190    18.8880 ha         1 MOL       0.000000
     33 H11         11.2860    34.9950    18.0490 ha         1 MOL       0.000000
     34 H12         14.9390    37.8160    24.9480 ha         1 MOL       0.000000
     35 H13         16.2040    38.6390    26.8730 ha         1 MOL       0.000000
     36 H14         16.6290    41.0470    27.0650 ha         1 MOL       0.000000
     37 H15         15.8720    42.6160    25.3890 ha         1 MOL       0.000000
     38 H16         14.5240    41.7780    23.5170 ha         1 MOL       0.000000
@<TRIPOS>BOND
     1     1    10 1   
     2     1     2 1   
     3     2     3 2   
     4     2    28 1   
     5     3     4 1   
     6     3    29 1   
     7     4     5 2   
     8     5     6 1   
     9     5    30 1   
    10     6    11 2   
    11     7     6 1   
    12     7    31 1   
    13     8     7 2   
    14     8    32 1   
    15     9     8 1   
    16     9     4 1   
    17    10     9 2   
    18    10    33 1   
    19    11    13 1   
    20    12    11 1   
    21    13    14 1   
    22    13    15 1   
    23    15    20 ar  
    24    15    16 ar  
    25    16    17 ar  
    26    16    34 1   
    27    17    18 ar  
    28    17    35 1   
    29    18    36 1   
    30    19    18 ar  
    31    19    37 1   
    32    20    19 ar  
    33    20    38 1   
    34    21     1 2   
    35    22    23 1   
    36    22    21 1   
    37    24    22 1   
    38    25    26 1   
    39    25    21 1   
    40    27    25 1   
@<TRIPOS>SUBSTRUCTURE
     1 MOL         1 TEMP              0 ****  ****    0 ROOT
