@<TRIPOS>MOLECULE
LIGAND
   64    68     1     0     0
SMALL
No Charge or Current Charge


@<TRIPOS>ATOM
      1 N           22.9290    10.6810    31.0540 na         1 UNL      -0.325600
      2 C           23.0120    12.0320    30.9590 cc         1 UNL       0.113800
      3 N1          22.0990    12.6890    31.7610 nd         1 UNL      -0.231300
      4 C1          21.2860    11.7150    32.5060 cd         1 UNL       0.098600
      5 C2          21.8180    10.3910    32.0700 cc         1 UNL       0.095200
      6 C3          23.8100     9.7730    30.2840 c3         1 UNL       0.024800
      7 H           24.1280    10.3180    29.3830 h1         1 UNL       0.049200
      8 H1          23.2520     8.9060    29.9010 h1         1 UNL       0.049200
      9 C4          25.0520     9.3460    31.0580 c3         1 UNL      -0.037800
     10 H2          24.8570     8.4520    31.6730 hc         1 UNL       0.028000
     11 H3          25.3250    10.1380    31.7810 hc         1 UNL       0.028000
     12 C5          26.2730     9.1030    30.1750 c3         1 UNL      -0.063700
     13 H4          27.1300     8.7520    30.7740 hc         1 UNL       0.023000
     14 H5          26.0820     8.3460    29.3980 hc         1 UNL       0.023000
     15 H6          26.5840    10.0290    29.6640 hc         1 UNL       0.023000
     16 C6          23.7550    12.8320    30.2590 c3         1 UNL       0.014000
     17 H7          24.4560    12.2990    29.5870 hc         1 UNL       0.037800
     18 C7          22.9930    13.7550    29.2460 c3         1 UNL      -0.058400
     19 H8          22.2380    14.3740    29.7650 hc         1 UNL       0.025400
     20 H9          22.4320    13.1490    28.5160 hc         1 UNL       0.025400
     21 C8          23.9490    14.6900    28.4210 c3         1 UNL      -0.090300
     22 H10         23.3730    15.3980    27.8090 hx         1 UNL       0.005900
     23 H11         24.5790    14.0830    27.7540 hx         1 UNL       0.005900
     24 N2          24.8670    15.4780    29.3040 n4         1 UNL       0.377900
     25 H12         24.2960    16.0920    29.8690 hn         1 UNL      -0.082200
     26 C9          25.6460    14.6180    30.2170 c3         1 UNL      -0.090300
     27 H13         26.2700    15.2640    30.8510 hx         1 UNL       0.005900
     28 H14         26.3120    13.9960    29.6010 hx         1 UNL       0.005900
     29 C10         24.7420    13.6940    31.1040 c3         1 UNL      -0.058400
     30 H15         25.4230    13.0490    31.6840 hc         1 UNL       0.025400
     31 H16         24.2010    14.3060    31.8490 hc         1 UNL       0.025400
     32 C11         25.7710    16.3300    28.4900 c3         1 UNL      -0.103200
     33 H17         26.3990    16.9350    29.1550 hx         1 UNL       0.002300
     34 H18         26.4020    15.6860    27.8660 hx         1 UNL       0.002300
     35 H19         25.1710    16.9920    27.8540 hx         1 UNL       0.002300
     36 C12         20.2330    12.1130    33.4840 ca         1 UNL       0.004000
     37 C13         21.4780     8.9140    32.2260 ca         1 UNL       0.094500
     38 C14         20.1490    11.4870    34.7500 ca         1 UNL      -0.032700
     39 H20         20.8770    10.7180    35.0080 ha         1 UNL       0.063900
     40 C15         19.1640    11.8230    35.6780 ca         1 UNL       0.059900
     41 C16         18.1870    12.8000    35.3520 ca         1 UNL       0.059300
     42 C17         18.2510    13.4610    34.0840 ca         1 UNL      -0.041300
     43 H21         17.5230    14.2320    33.8320 ha         1 UNL       0.063300
     44 C18         19.2830    13.1020    33.1400 ca         1 UNL      -0.051000
     45 H22         19.3290    13.5910    32.1670 ha         1 UNL       0.062500
     46 Cl          19.2050    10.9730    37.1650 cl         1 UNL      -0.082000
     47 Cl1         16.9170    13.2460    36.4370 cl         1 UNL      -0.082000
     48 C19         20.2400     8.5980    32.8480 ca         1 UNL      -0.015900
     49 H23         19.5450     9.3710    33.1760 ha         1 UNL       0.065500
     50 C20         19.9620     7.2220    33.0170 ca         1 UNL       0.033300
     51 H24         19.0160     6.9260    33.4710 h4         1 UNL       0.083100
     52 N3          20.8310     6.2650    32.6340 nb         1 UNL      -0.222900
     53 C21         21.9780     6.6790    32.0780 ca         1 UNL       0.215900
     54 N4          22.3180     7.9500    31.8670 nb         1 UNL      -0.212900
     55 N5          22.9070     5.7760    31.6830 nh         1 UNL      -0.310600
     56 H25         23.5380     5.3690    32.3880 hn         1 UNL       0.149200
     57 C22         23.0400     5.3650    30.3010 cx         1 UNL       0.023400
     58 H26         22.2760     4.6990    29.8850 h1         1 UNL       0.049800
     59 C23         24.3720     4.7200    30.6710 cx         1 UNL      -0.032800
     60 H27         24.6300     3.7160    30.3210 hc         1 UNL       0.028400
     61 H28         24.9700     5.0000    31.5540 hc         1 UNL       0.028400
     62 C24         24.2570     5.7910    29.6330 cx         1 UNL      -0.032800
     63 H29         24.6110     6.7940    29.8760 hc         1 UNL       0.028400
     64 H30         24.3860     5.5520    28.5750 hc         1 UNL       0.028400
@<TRIPOS>BOND
     1     1     2 1   
     2     1     5 1   
     3     1     6 1   
     4     2     3 2   
     5     2    16 1   
     6     3     4 1   
     7     4     5 2   
     8     4    36 1   
     9     5    37 1   
    10     6     9 1   
    11     6     7 1   
    12     6     8 1   
    13     9    12 1   
    14     9    10 1   
    15     9    11 1   
    16    12    13 1   
    17    12    14 1   
    18    12    15 1   
    19    16    18 1   
    20    16    29 1   
    21    16    17 1   
    22    18    21 1   
    23    18    19 1   
    24    18    20 1   
    25    21    24 1   
    26    21    22 1   
    27    21    23 1   
    28    24    26 1   
    29    24    32 1   
    30    24    25 1   
    31    26    29 1   
    32    26    27 1   
    33    26    28 1   
    34    29    30 1   
    35    29    31 1   
    36    32    33 1   
    37    32    34 1   
    38    32    35 1   
    39    36    38 ar  
    40    36    44 ar  
    41    37    48 ar  
    42    37    54 ar  
    43    38    40 ar  
    44    38    39 1   
    45    40    41 ar  
    46    40    46 1   
    47    41    42 ar  
    48    41    47 1   
    49    42    44 ar  
    50    42    43 1   
    51    44    45 1   
    52    48    50 ar  
    53    48    49 1   
    54    50    52 ar  
    55    50    51 1   
    56    52    53 ar  
    57    53    54 ar  
    58    53    55 1   
    59    55    57 1   
    60    55    56 1   
    61    57    59 1   
    62    57    62 1   
    63    57    58 1   
    64    59    62 1   
    65    59    60 1   
    66    59    61 1   
    67    62    63 1   
    68    62    64 1   
@<TRIPOS>SUBSTRUCTURE
     1 UNL         1 TEMP              0 ****  ****    0 ROOT
