@<TRIPOS>MOLECULE
LIGAND
   47    48     1     0     0
SMALL
No Charge or Current Charge


@<TRIPOS>ATOM
      1 C           16.1500    22.3350    42.8110 c          1 UNL       0.398200
      2 O           15.3160    21.8930    41.9800 o          1 UNL      -0.241900
      3 O1          16.9980    23.2070    42.5060 o          1 UNL      -0.241900
      4 C1          16.1410    21.7710    44.2030 c3         1 UNL       0.204700
      5 C2          15.1160    22.5540    45.0230 c3         1 UNL      -0.014400
      6 H           15.0620    22.1800    46.0580 hc         1 UNL       0.027300
      7 H1          15.3650    23.6270    45.0660 hc         1 UNL       0.027300
      8 H2          14.1070    22.4630    44.5880 hc         1 UNL       0.027300
      9 C3          17.5310    21.9290    44.8610 c3         1 UNL      -0.014400
     10 H3          17.5540    21.4130    45.8330 hc         1 UNL       0.027300
     11 H4          18.3470    21.5170    44.2480 hc         1 UNL       0.027300
     12 H5          17.7640    22.9900    45.0480 hc         1 UNL       0.027300
     13 O2          15.7170    20.3840    44.1390 os         1 UNL      -0.474900
     14 C4          16.5230    19.2430    43.6250 ca         1 UNL       0.122100
     15 C5          16.2460    17.9700    44.1170 ca         1 UNL      -0.019600
     16 H6          15.4670    17.8370    44.8670 ha         1 UNL       0.065400
     17 C6          16.9520    16.8770    43.6600 ca         1 UNL      -0.054700
     18 H7          16.7270    15.8850    44.0530 ha         1 UNL       0.062200
     19 C7          17.9400    17.0290    42.7100 ca         1 UNL      -0.038400
     20 C8          17.5250    19.4050    42.6630 ca         1 UNL      -0.019600
     21 H8          17.7530    20.3960    42.2700 ha         1 UNL       0.065400
     22 C9          18.2350    18.2860    42.2070 ca         1 UNL      -0.054700
     23 H9          19.0180    18.4040    41.4580 ha         1 UNL       0.062200
     24 C10         18.6450    15.8760    42.2400 c3         1 UNL       0.049400
     25 H10         18.9370    15.2470    43.1040 hc         1 UNL       0.040700
     26 H11         19.6100    16.1770    41.7890 hc         1 UNL       0.040700
     27 C11         17.8550    15.0410    41.2140 c          1 UNL       0.221500
     28 O3          16.7450    15.4130    40.8360 o          1 UNL      -0.275100
     29 N           18.2860    13.8040    41.0020 n          1 UNL      -0.285200
     30 H12         19.1090    13.4960    41.5390 hn         1 UNL       0.154800
     31 C12         17.7310    12.8920    40.1270 ca         1 UNL       0.033900
     32 C13         16.3370    12.7960    39.9850 ca         1 UNL      -0.037500
     33 H13         15.6890    13.5480    40.4360 ha         1 UNL       0.063900
     34 C14         15.7870    11.7440    39.2710 ca         1 UNL      -0.048400
     35 C15         16.6210    10.7910    38.7010 ca         1 UNL      -0.055800
     36 H14         16.1930     9.9590    38.1420 ha         1 UNL       0.062300
     37 C16         18.5490    11.9350    39.5470 ca         1 UNL      -0.037500
     38 H15         19.6310    12.0110    39.6530 ha         1 UNL       0.063900
     39 C17         18.0040    10.8950    38.8420 ca         1 UNL      -0.048400
     40 C18         14.3030    11.6400    39.1100 c3         1 UNL      -0.039600
     41 H16         13.8290    12.6310    39.1670 hc         1 UNL       0.027800
     42 H17         14.0380    11.1940    38.1400 hc         1 UNL       0.027800
     43 H18         13.8610    11.0120    39.9010 hc         1 UNL       0.027800
     44 C19         18.9090     9.8760    38.2190 c3         1 UNL      -0.039600
     45 H19         18.4730     9.4730    37.2930 hc         1 UNL       0.027800
     46 H20         19.8880    10.3110    37.9690 hc         1 UNL       0.027800
     47 H21         19.0810     9.0290    38.9030 hc         1 UNL       0.027800
@<TRIPOS>BOND
     1     1     2 1   
     2     1     3 1   
     3     1     4 1   
     4     4     5 1   
     5     4     9 1   
     6     4    13 1   
     7     5     6 1   
     8     5     7 1   
     9     5     8 1   
    10     9    10 1   
    11     9    11 1   
    12     9    12 1   
    13    13    14 1   
    14    14    15 ar  
    15    14    20 ar  
    16    15    17 ar  
    17    15    16 1   
    18    17    19 ar  
    19    17    18 1   
    20    19    22 ar  
    21    19    24 1   
    22    20    22 ar  
    23    20    21 1   
    24    22    23 1   
    25    24    27 1   
    26    24    25 1   
    27    24    26 1   
    28    27    28 2   
    29    27    29 1   
    30    29    31 1   
    31    29    30 1   
    32    31    32 ar  
    33    31    37 ar  
    34    32    34 ar  
    35    32    33 1   
    36    34    35 ar  
    37    34    40 1   
    38    35    39 ar  
    39    35    36 1   
    40    37    39 ar  
    41    37    38 1   
    42    39    44 1   
    43    40    41 1   
    44    40    42 1   
    45    40    43 1   
    46    44    45 1   
    47    44    46 1   
    48    44    47 1   
@<TRIPOS>SUBSTRUCTURE
     1 UNL         1 TEMP              0 ****  ****    0 ROOT
