MODEL 1
REMARK VINA RESULT:      -6.3      0.000      0.000
REMARK  1 active torsions:
REMARK  status: ('A' for Active; 'I' for Inactive)
REMARK    1  A    between atoms: C11_15  and  N1_16 
ROOT
ATOM      1  C   UNL d          17.110  22.091   9.516  0.00  0.00     0.245 A 
ATOM      2  O   UNL d          18.219  22.594   9.838  0.00  0.00    -0.268 OA
ATOM      3  N   UNL d          16.049  22.098  10.425  0.00  0.00    -0.327 N 
ATOM      4  H   UNL d          16.216  22.526  11.347  0.00  0.00     0.169 HD
ATOM      5  C1  UNL d          16.835  21.479   8.223  0.00  0.00     0.075 A 
ATOM      6  C2  UNL d          15.594  20.944   7.948  0.00  0.00     0.017 A 
ATOM      7  C3  UNL d          14.502  20.957   8.906  0.00  0.00     0.005 A 
ATOM      8  C4  UNL d          14.767  21.565  10.175  0.00  0.00     0.022 A 
ATOM      9  C5  UNL d          13.757  21.670  11.293  0.00  0.00     0.070 C 
ATOM     10  C6  UNL d          12.324  21.093  10.906  0.00  0.00     0.045 C 
ATOM     11  C7  UNL d          11.436  22.152  10.220  0.00  0.00    -0.015 C 
ATOM     12  C8  UNL d          11.528  18.071  11.458  0.00  0.00     0.036 C 
ATOM     13  C9  UNL d          12.117  18.631  10.199  0.00  0.00    -0.025 C 
ATOM     14  C10 UNL d          12.470  19.886   9.951  0.00  0.00    -0.036 C 
ATOM     15  C11 UNL d          13.072  20.332   8.597  0.00  0.00     0.179 C 
ATOM     16  C12 UNL d          12.148  21.390   7.924  0.00  0.00     0.082 C 
ATOM     17  C13 UNL d          11.360  22.283   8.866  0.00  0.00    -0.084 C 
ATOM     18  C14 UNL d          10.489  23.307   8.170  0.00  0.00     0.043 C 
ENDROOT
BRANCH  15  19
ATOM     19  N1  UNL d          13.218  19.181   7.663  0.00  0.00    -0.062 N 
ATOM     20  H11 UNL d          12.849  19.393   6.745  0.00  0.00     0.276 HD
ATOM     21  H12 UNL d          14.185  18.911   7.545  0.00  0.00     0.276 HD
ATOM     22  H13 UNL d          12.730  18.357   7.993  0.00  0.00     0.276 HD
ENDBRANCH  15  19
TORSDOF 1
ENDMDL
MODEL 2
REMARK VINA RESULT:      -5.9      1.433      3.530
REMARK  1 active torsions:
REMARK  status: ('A' for Active; 'I' for Inactive)
REMARK    1  A    between atoms: C11_15  and  N1_16 
ROOT
ATOM      1  C   UNL d          16.796  20.860   8.603  0.00  0.00     0.245 A 
ATOM      2  O   UNL d          17.909  20.656   8.046  0.00  0.00    -0.268 OA
ATOM      3  N   UNL d          15.616  20.452   7.976  0.00  0.00    -0.327 N 
ATOM      4  H   UNL d          15.700  19.989   7.059  0.00  0.00     0.169 HD
ATOM      5  C1  UNL d          16.638  21.509   9.897  0.00  0.00     0.075 A 
ATOM      6  C2  UNL d          15.384  21.701  10.438  0.00  0.00     0.017 A 
ATOM      7  C3  UNL d          14.166  21.273   9.771  0.00  0.00     0.005 A 
ATOM      8  C4  UNL d          14.319  20.627   8.504  0.00  0.00     0.022 A 
ATOM      9  C5  UNL d          13.170  20.118   7.666  0.00  0.00     0.070 C 
ATOM     10  C6  UNL d          11.749  20.307   8.360  0.00  0.00     0.045 C 
ATOM     11  C7  UNL d          11.391  19.125   9.284  0.00  0.00    -0.015 C 
ATOM     12  C8  UNL d           9.984  22.902   7.888  0.00  0.00     0.036 C 
ATOM     13  C9  UNL d          10.973  22.674   8.991  0.00  0.00    -0.025 C 
ATOM     14  C10 UNL d          11.730  21.605   9.201  0.00  0.00    -0.036 C 
ATOM     15  C11 UNL d          12.717  21.500  10.388  0.00  0.00     0.179 C 
ATOM     16  C12 UNL d          12.322  20.308  11.307  0.00  0.00     0.082 C 
ATOM     17  C13 UNL d          11.653  19.130  10.622  0.00  0.00    -0.084 C 
ATOM     18  C14 UNL d          11.302  17.986  11.549  0.00  0.00     0.043 C 
ENDROOT
BRANCH  15  19
ATOM     19  N1  UNL d          12.710  22.743  11.209  0.00  0.00    -0.062 N 
ATOM     20  H11 UNL d          13.407  22.713  11.942  0.00  0.00     0.276 HD
ATOM     21  H12 UNL d          12.894  23.566  10.651  0.00  0.00     0.276 HD
ATOM     22  H13 UNL d          11.816  22.899  11.660  0.00  0.00     0.276 HD
ENDBRANCH  15  19
TORSDOF 1
ENDMDL
MODEL 3
REMARK VINA RESULT:      -5.9      3.127      5.241
REMARK  1 active torsions:
REMARK  status: ('A' for Active; 'I' for Inactive)
REMARK    1  A    between atoms: C11_15  and  N1_16 
ROOT
ATOM      1  C   UNL d          10.080  18.495  12.665  0.00  0.00     0.245 A 
ATOM      2  O   UNL d           9.489  17.544  13.242  0.00  0.00    -0.268 OA
ATOM      3  N   UNL d          10.864  18.247  11.535  0.00  0.00    -0.327 N 
ATOM      4  H   UNL d          10.933  17.273  11.208  0.00  0.00     0.169 HD
ATOM      5  C1  UNL d          10.006  19.884  13.096  0.00  0.00     0.075 A 
ATOM      6  C2  UNL d          10.688  20.869  12.411  0.00  0.00     0.017 A 
ATOM      7  C3  UNL d          11.502  20.594  11.241  0.00  0.00     0.005 A 
ATOM      8  C4  UNL d          11.569  19.231  10.810  0.00  0.00     0.022 A 
ATOM      9  C5  UNL d          12.365  18.756   9.617  0.00  0.00     0.070 C 
ATOM     10  C6  UNL d          13.084  19.937   8.826  0.00  0.00     0.045 C 
ATOM     11  C7  UNL d          12.164  20.567   7.760  0.00  0.00    -0.015 C 
ATOM     12  C8  UNL d          16.044  20.855   9.510  0.00  0.00     0.036 C 
ATOM     13  C9  UNL d          14.773  21.424  10.066  0.00  0.00    -0.025 C 
ATOM     14  C10 UNL d          13.528  21.048   9.805  0.00  0.00    -0.036 C 
ATOM     15  C11 UNL d          12.298  21.726  10.454  0.00  0.00     0.179 C 
ATOM     16  C12 UNL d          11.397  22.363   9.355  0.00  0.00     0.082 C 
ATOM     17  C13 UNL d          11.400  21.669   8.005  0.00  0.00    -0.084 C 
ATOM     18  C14 UNL d          10.498  22.310   6.972  0.00  0.00     0.043 C 
ENDROOT
BRANCH  15  19
ATOM     19  N1  UNL d          12.708  22.801  11.400  0.00  0.00    -0.062 N 
ATOM     20  H11 UNL d          13.480  23.345  11.038  0.00  0.00     0.276 HD
ATOM     21  H12 UNL d          11.950  23.443  11.593  0.00  0.00     0.276 HD
ATOM     22  H13 UNL d          13.002  22.431  12.296  0.00  0.00     0.276 HD
ENDBRANCH  15  19
TORSDOF 1
ENDMDL
