@<TRIPOS>MOLECULE
LIGAND
   23    24     1     0     0
SMALL
No Charge or Current Charge


@<TRIPOS>ATOM
      1 C           36.5730    58.0680    78.1320 ca         1 UNL      -0.014200
      2 C1          36.4670    58.4150    76.7810 ca         1 UNL      -0.028900
      3 C2          37.5850    58.3010    75.8920 ca         1 UNL      -0.057500
      4 H           37.5040    58.5790    74.8410 ha         1 UNL       0.062100
      5 C3          38.7980    57.8140    76.4310 ca         1 UNL      -0.060900
      6 H1          39.6580    57.7200    75.7690 ha         1 UNL       0.061800
      7 C4          38.9440    57.4580    77.7310 ca         1 UNL      -0.054000
      8 H2          39.9050    57.0910    78.0930 ha         1 UNL       0.062400
      9 C5          37.8540    57.5630    78.6100 ca         1 UNL      -0.017600
     10 C6          37.9290    57.1890    79.9970 ca         1 UNL      -0.054000
     11 H3          38.8590    56.7840    80.3950 ha         1 UNL       0.062400
     12 C7          36.8370    57.3360    80.8310 ca         1 UNL      -0.061200
     13 H4          36.9410    57.0760    81.8840 ha         1 UNL       0.061800
     14 C8          35.5960    57.8100    80.3680 ca         1 UNL      -0.061200
     15 H5          34.7500    57.8780    81.0520 ha         1 UNL       0.061800
     16 C9          35.4490    58.1880    79.0530 ca         1 UNL      -0.053800
     17 H6          34.4940    58.5770    78.7000 ha         1 UNL       0.062400
     18 C10         35.1400    58.9890    76.2140 c3         1 UNL       0.074900
     19 H7          34.5820    59.5100    76.9980 hc         1 UNL       0.042800
     20 H8          34.5250    58.1660    75.8160 hc         1 UNL       0.042800
     21 C11         35.4320    59.9670    75.1260 c          1 UNL       0.360300
     22 O           35.6330    61.2430    75.3280 o          1 UNL      -0.246000
     23 O1          35.5730    59.3500    73.9620 o          1 UNL      -0.246000
@<TRIPOS>BOND
     1     1     2 ar  
     2     1     9 ar  
     3     1    16 ar  
     4     2     3 ar  
     5     2    18 1   
     6     3     5 ar  
     7     3     4 1   
     8     5     7 ar  
     9     5     6 1   
    10     7     9 ar  
    11     7     8 1   
    12     9    10 ar  
    13    10    12 ar  
    14    10    11 1   
    15    12    14 ar  
    16    12    13 1   
    17    14    16 ar  
    18    14    15 1   
    19    16    17 1   
    20    18    21 1   
    21    18    19 1   
    22    18    20 1   
    23    21    22 1   
    24    21    23 1   
@<TRIPOS>SUBSTRUCTURE
     1 UNL         1 TEMP              0 ****  ****    0 ROOT
