@<TRIPOS>MOLECULE
LIGAND
   51    51     1     0     0
SMALL
No Charge or Current Charge


@<TRIPOS>ATOM
      1 C           24.6460    16.5550    63.1530 c3         1 UNL       0.083300
      2 N           24.2740    15.9440    61.8770 nh         1 UNL      -0.275600
      3 C1          23.8880    14.7170    61.8370 cz         1 UNL       0.341200
      4 N1          23.6880    13.8980    62.9170 nh         1 UNL      -0.291900
      5 N2          23.5920    14.1650    60.6120 nh         1 UNL      -0.291900
      6 C2          25.7230    17.6470    62.8880 c3         1 UNL       0.037900
      7 C3          27.1700    17.1260    62.5750 c3         1 UNL       0.034200
      8 C4          28.1920    18.3180    62.3820 c3         1 UNL      -0.022600
      9 C5          27.7850    19.2510    61.2010 c3         1 UNL      -0.051400
     10 C6          28.4340    20.6540    61.1620 c3         1 UNL      -0.065000
     11 C7          29.6240    17.7090    62.2030 c3         1 UNL      -0.051400
     12 C8          30.1080    16.8420    63.3870 c3         1 UNL      -0.065000
     13 N3          27.1560    16.2630    61.3860 n          1 UNL      -0.312000
     14 C9          27.2660    14.9130    61.5190 c          1 UNL       0.210200
     15 C10         27.1800    14.0660    60.2630 c3         1 UNL       0.012200
     16 O           27.4320    14.3150    62.5720 o          1 UNL      -0.276100
     17 C11         25.6780    18.5470    64.1730 c3         1 UNL       0.076000
     18 O1          26.5860    17.9910    65.1660 oh         1 UNL      -0.390500
     19 C12         24.2180    18.3970    64.7210 c3         1 UNL       0.090000
     20 C13         23.4850    19.6920    64.8870 c          1 UNL       0.361600
     21 O2          22.2660    19.7760    65.0340 o          1 UNL      -0.246000
     22 O3          24.2040    20.8120    64.7970 o          1 UNL      -0.246000
     23 C14         23.5020    17.4190    63.7550 c3         1 UNL      -0.003400
     24 H           25.0210    15.8030    63.8600 h1         1 UNL       0.069600
     25 H1          24.3210    16.4970    61.0090 hn         1 UNL       0.258000
     26 H2          23.3770    12.9260    62.7760 hn         1 UNL       0.254500
     27 H3          23.8490    14.2540    63.8700 hn         1 UNL       0.254500
     28 H4          23.2810    13.1850    60.5500 hn         1 UNL       0.254500
     29 H5          23.6820    14.7320    59.7570 hn         1 UNL       0.254500
     30 H6          25.3360    18.2340    62.0400 hc         1 UNL       0.037800
     31 H7          27.4970    16.5120    63.4250 h1         1 UNL       0.050600
     32 H8          28.1880    18.9060    63.3160 hc         1 UNL       0.031900
     33 H9          26.7000    19.4420    61.2130 hc         1 UNL       0.026600
     34 H10         27.9910    18.7370    60.2460 hc         1 UNL       0.026600
     35 H11         28.0560    21.2290    60.3010 hc         1 UNL       0.023000
     36 H12         28.1930    21.2200    62.0770 hc         1 UNL       0.023000
     37 H13         29.5310    20.6010    61.0800 hc         1 UNL       0.023000
     38 H14         30.3520    18.5290    62.0670 hc         1 UNL       0.026600
     39 H15         29.6650    17.1140    61.2730 hc         1 UNL       0.026600
     40 H16         31.1750    16.5920    63.2730 hc         1 UNL       0.023000
     41 H17         29.9920    17.3800    64.3420 hc         1 UNL       0.023000
     42 H18         29.5600    15.8910    63.4640 hc         1 UNL       0.023000
     43 H19         27.0630    16.6810    60.4490 hn         1 UNL       0.149000
     44 H20         26.3860    14.3940    59.5790 hc         1 UNL       0.032200
     45 H21         28.1310    14.1340    59.7110 hc         1 UNL       0.032200
     46 H22         27.0160    13.0270    60.5710 hc         1 UNL       0.032200
     47 H23         25.9830    19.5840    63.9550 h1         1 UNL       0.060600
     48 H24         26.4300    18.4540    66.0730 ho         1 UNL       0.209800
     49 H25         24.2610    17.9090    65.7070 hc         1 UNL       0.044200
     50 H26         22.7080    16.8340    64.2460 hc         1 UNL       0.030700
     51 H27         23.0210    17.9950    62.9440 hc         1 UNL       0.030700
@<TRIPOS>BOND
     1     1     2 1   
     2     1     6 1   
     3     1    23 1   
     4     2     3 2   
     5     3     4 1   
     6     3     5 1   
     7     6     7 1   
     8     6    17 1   
     9     7     8 1   
    10     7    13 1   
    11     8     9 1   
    12     8    11 1   
    13     9    10 1   
    14    11    12 1   
    15    13    14 1   
    16    14    15 1   
    17    14    16 2   
    18    17    18 1   
    19    17    19 1   
    20    19    20 1   
    21    19    23 1   
    22    20    21 1   
    23    20    22 1   
    24     1    24 1   
    25     2    25 1   
    26     4    26 1   
    27     4    27 1   
    28     5    28 1   
    29     5    29 1   
    30     6    30 1   
    31     7    31 1   
    32     8    32 1   
    33     9    33 1   
    34     9    34 1   
    35    10    35 1   
    36    10    36 1   
    37    10    37 1   
    38    11    38 1   
    39    11    39 1   
    40    12    40 1   
    41    12    41 1   
    42    12    42 1   
    43    13    43 1   
    44    15    44 1   
    45    15    45 1   
    46    15    46 1   
    47    17    47 1   
    48    18    48 1   
    49    19    49 1   
    50    23    50 1   
    51    23    51 1   
@<TRIPOS>SUBSTRUCTURE
     1 UNL         1 TEMP              0 ****  ****    0 ROOT
