@<TRIPOS>MOLECULE
MOL
   22    21     1     0     0
SMALL
No Charge or Current Charge


@<TRIPOS>ATOM
      1 C1           3.4720    -1.8750    16.6520 c3         1 MOL       0.000000
      2 C2           4.3980    -0.6740    16.2670 c          1 MOL       0.000000
      3 O1           5.4240    -0.4390    17.0370 oh         1 MOL       0.000000
      4 O2           4.1600    -0.0070    15.2520 o          1 MOL       0.000000
      5 O3           3.0250    -2.5270    15.4140 oh         1 MOL       0.000000
      6 H1           2.7810    -3.5080    15.6110 ho         1 MOL       0.000000
      7 C3           2.2170    -1.3990    17.5060 c3         1 MOL       0.000000
      8 C4           1.9990    -2.3050    18.7160 c3         1 MOL       0.000000
      9 C5           2.3850     0.0400    17.9530 c3         1 MOL       0.000000
     10 C6           0.9990    -1.5270    16.5580 c3         1 MOL       0.000000
     11 O4           0.3950    -2.8050    16.6690 oh         1 MOL       0.000000
     12 H2           1.1040    -3.4970    16.9500 ho         1 MOL       0.000000
     13 H3           4.0240    -2.5610    17.2600 h1         1 MOL       0.000000
     14 H4           5.5700    -0.9670    17.7970 ho         1 MOL       0.000000
     15 H5           1.8820    -3.3170    18.3880 hc         1 MOL       0.000000
     16 H6           1.1180    -1.9960    19.2390 hc         1 MOL       0.000000
     17 H7           2.8440    -2.2370    19.3690 hc         1 MOL       0.000000
     18 H8           2.5370     0.6640    17.0970 hc         1 MOL       0.000000
     19 H9           3.2310     0.1150    18.6040 hc         1 MOL       0.000000
     20 H10          1.5060     0.3570    18.4740 hc         1 MOL       0.000000
     21 H11          0.2790    -0.7770    16.8120 h1         1 MOL       0.000000
     22 H12          1.3380    -1.3990    15.5510 h1         1 MOL       0.000000
@<TRIPOS>BOND
     1     1     7 1   
     2     1    13 1   
     3     2     1 1   
     4     2     3 1   
     5     3    14 1   
     6     4     2 2   
     7     5     6 1   
     8     5     1 1   
     9     7     9 1   
    10     7     8 1   
    11     8    15 1   
    12     8    16 1   
    13     8    17 1   
    14     9    18 1   
    15     9    19 1   
    16     9    20 1   
    17    10    11 1   
    18    10     7 1   
    19    10    21 1   
    20    10    22 1   
    21    11    12 1   
@<TRIPOS>SUBSTRUCTURE
     1 MOL         1 TEMP              0 ****  ****    0 ROOT
