@<TRIPOS>MOLECULE
MOL
   54    54     1     0     0
SMALL
No Charge or Current Charge


@<TRIPOS>ATOM
      1 C1          15.0980    -4.2870    13.9060 ca         1 MOL       0.000000
      2 N1          16.0450    -3.8370    13.0480 nb         1 MOL       0.000000
      3 C2          15.6780    -3.2330    11.9050 ca         1 MOL       0.000000
      4 N2          16.4600    -2.7620    10.9620 na         1 MOL       0.000000
      5 C3          15.6560    -2.2520     9.9860 cc         1 MOL       0.000000
      6 C4          14.3900    -3.0190    11.5660 ca         1 MOL       0.000000
      7 N3          14.3240    -2.3470    10.3420 nd         1 MOL       0.000000
      8 N4          13.8060    -4.0890    13.5840 nb         1 MOL       0.000000
      9 C5          13.4300    -3.4810    12.4510 ca         1 MOL       0.000000
     10 N5          15.4980    -4.8930    15.0530 nh         1 MOL       0.000000
     11 H1          15.8800    -4.2830    15.7900 hn         1 MOL       0.000000
     12 C6          15.4430    -6.3180    15.3460 c1         1 MOL       0.000000
     13 H2          16.4040    -6.6520    15.7600 ha         1 MOL       0.000000
     14 C7          14.3520    -6.4100    16.4190 c3         1 MOL       0.000000
     15 O1          13.1130    -6.4230    15.7530 oh         1 MOL       0.000000
     16 H3          12.7110    -5.4750    15.7580 ho         1 MOL       0.000000
     17 C8          14.9920    -7.1740    14.1620 c3         1 MOL       0.000000
     18 C9          16.1120    -7.6650    13.2680 c3         1 MOL       0.000000
     19 N6          12.1430    -3.3250    12.1130 nh         1 MOL       0.000000
     20 H4          11.9070    -3.0920    11.1380 hn         1 MOL       0.000000
     21 C10         11.0630    -3.4760    13.0860 c3         1 MOL       0.000000
     22 C11         10.2390    -2.2270    13.2950 ca         1 MOL       0.000000
     23 C12         10.8320    -0.9670    13.1530 ca         1 MOL       0.000000
     24 C13         10.0710     0.1900    13.3560 ca         1 MOL       0.000000
     25 C14          8.7300     0.0920    13.7340 ca         1 MOL       0.000000
     26 C15          8.1440    -1.1650    13.8990 ca         1 MOL       0.000000
     27 C16          8.8980    -2.3220    13.6780 ca         1 MOL       0.000000
     28 C17         17.9080    -2.9020    11.1840 c3         1 MOL       0.000000
     29 C18         18.3650    -4.1250    10.3910 c3         1 MOL       0.000000
     30 C19         18.5840    -1.5720    10.9780 c3         1 MOL       0.000000
     31 H5          15.9970    -1.8490     9.0990 h5         1 MOL       0.000000
     32 H6          14.7700    -7.3950    16.4140 h1         1 MOL       0.000000
     33 H7          14.2100    -6.0880    17.4300 h1         1 MOL       0.000000
     34 H8          15.0180    -5.7370    15.9200 h1         1 MOL       0.000000
     35 H9          14.0490    -7.3890    13.7030 hc         1 MOL       0.000000
     36 H10         15.0870    -6.1180    14.3050 hc         1 MOL       0.000000
     37 H11         15.0490    -7.6690    15.1090 hc         1 MOL       0.000000
     38 H12         16.0550    -7.1700    12.3210 hc         1 MOL       0.000000
     39 H13         16.0170    -8.7210    13.1250 hc         1 MOL       0.000000
     40 H14         17.0550    -7.4500    13.7270 hc         1 MOL       0.000000
     41 H15         11.4940    -3.7550    14.0250 h1         1 MOL       0.000000
     42 H16         10.4000    -4.2200    12.6970 h1         1 MOL       0.000000
     43 H17         11.8290    -0.8910    12.8990 ha         1 MOL       0.000000
     44 H18         10.5020     1.1190    13.2260 ha         1 MOL       0.000000
     45 H19          8.1730     0.9470    13.8910 ha         1 MOL       0.000000
     46 H20          7.1550    -1.2400    14.1840 ha         1 MOL       0.000000
     47 H21          8.4630    -3.2500    13.7980 ha         1 MOL       0.000000
     48 H22         18.2020    -3.1230    12.1890 h1         1 MOL       0.000000
     49 H23         18.1120    -3.9960     9.3590 hc         1 MOL       0.000000
     50 H24         17.8780    -4.9990    10.7710 hc         1 MOL       0.000000
     51 H25         19.4250    -4.2370    10.4870 hc         1 MOL       0.000000
     52 H26         18.3750    -1.2150     9.9910 hc         1 MOL       0.000000
     53 H27         19.6410    -1.6860    11.1000 hc         1 MOL       0.000000
     54 H28         18.2160    -0.8700    11.6970 hc         1 MOL       0.000000
@<TRIPOS>BOND
     1     1    10 1   
     2     2     1 ar  
     3     3     2 ar  
     4     4    28 1   
     5     4     3 1   
     6     5     7 2   
     7     5     4 1   
     8     5    31 1   
     9     6     3 ar  
    10     6     9 ar  
    11     7     6 1   
    12     8     1 ar  
    13     9     8 ar  
    14    10    12 3   
    15    10    11 1   
    16    12    13 1   
    17    14    32 1   
    18    14    33 1   
    19    14    34 1   
    20    15    16 1   
    21    15    14 1   
    22    17    35 1   
    23    17    36 1   
    24    17    37 1   
    25    18    17 1   
    26    18    38 1   
    27    18    39 1   
    28    18    40 1   
    29    19     9 1   
    30    19    21 1   
    31    20    19 1   
    32    21    22 1   
    33    21    41 1   
    34    21    42 1   
    35    22    27 ar  
    36    23    22 ar  
    37    23    24 ar  
    38    23    43 1   
    39    24    25 ar  
    40    24    44 1   
    41    25    26 ar  
    42    25    45 1   
    43    26    46 1   
    44    27    26 ar  
    45    27    47 1   
    46    28    48 1   
    47    29    28 1   
    48    29    49 1   
    49    29    50 1   
    50    29    51 1   
    51    30    28 1   
    52    30    52 1   
    53    30    53 1   
    54    30    54 1   
@<TRIPOS>SUBSTRUCTURE
     1 MOL         1 TEMP              0 ****  ****    0 ROOT
