@<TRIPOS>MOLECULE
MOL
   31    31     1     0     0
SMALL
No Charge or Current Charge


@<TRIPOS>ATOM
      1 C1          64.1520    46.0630    25.0810 c3         1 MOL       0.000000
      2 C2          64.5100    44.8700    25.8600 c          1 MOL       0.000000
      3 N1          65.0290    43.6040    25.3420 n          1 MOL       0.000000
      4 C3          64.1570    42.9770    24.3350 c3         1 MOL       0.000000
      5 C4          65.2880    42.5310    26.3310 c3         1 MOL       0.000000
      6 C5          64.5970    41.4340    24.3140 c3         1 MOL       0.000000
      7 C6          65.7490    41.3710    25.4140 c3         1 MOL       0.000000
      8 O1          64.3250    44.9690    27.2190 o          1 MOL       0.000000
      9 C7          65.2590    46.9220    24.5390 c3         1 MOL       0.000000
     10 C8          66.3580    47.1840    25.4810 c3         1 MOL       0.000000
     11 C9          65.9890    46.1690    23.2100 c3         1 MOL       0.000000
     12 N2          63.2360    46.9640    25.8550 n4         1 MOL       0.000000
     13 H1          63.5400    47.0790    26.8120 hn         1 MOL       0.000000
     14 H2          63.1520    47.8910    25.4590 hn         1 MOL       0.000000
     15 H3          62.2970    46.5810    25.8810 hn         1 MOL       0.000000
     16 H4          63.6910    45.6140    24.2260 hx         1 MOL       0.000000
     17 H5          63.1290    43.0720    24.6160 h1         1 MOL       0.000000
     18 H6          64.2540    43.4380    23.3740 h1         1 MOL       0.000000
     19 H7          64.4000    42.2740    26.8700 h1         1 MOL       0.000000
     20 H8          65.9960    42.7970    27.0880 h1         1 MOL       0.000000
     21 H9          64.9700    41.1540    23.3510 hc         1 MOL       0.000000
     22 H10         63.7880    40.7630    24.5140 hc         1 MOL       0.000000
     23 H11         66.7150    41.5550    24.9920 hc         1 MOL       0.000000
     24 H12         65.8650    40.4250    25.8990 hc         1 MOL       0.000000
     25 H13         64.7730    47.8450    24.3010 hc         1 MOL       0.000000
     26 H14         66.8480    46.2640    25.7230 hc         1 MOL       0.000000
     27 H15         65.9650    47.6240    26.3740 hc         1 MOL       0.000000
     28 H16         67.0600    47.8550    25.0320 hc         1 MOL       0.000000
     29 H17         66.4510    45.2570    23.5260 hc         1 MOL       0.000000
     30 H18         66.7300    46.8190    22.7940 hc         1 MOL       0.000000
     31 H19         65.2470    45.9550    22.4700 hc         1 MOL       0.000000
@<TRIPOS>BOND
     1     1    12 1   
     2     1     2 1   
     3     1    16 1   
     4     2     8 2   
     5     3     2 1   
     6     3     5 1   
     7     4     3 1   
     8     4    17 1   
     9     4    18 1   
    10     5    19 1   
    11     5    20 1   
    12     6     4 1   
    13     6     7 1   
    14     6    21 1   
    15     6    22 1   
    16     7     5 1   
    17     7    23 1   
    18     7    24 1   
    19     9     1 1   
    20     9    10 1   
    21     9    25 1   
    22    10    26 1   
    23    10    27 1   
    24    10    28 1   
    25    11     9 1   
    26    11    29 1   
    27    11    30 1   
    28    11    31 1   
    29    12    15 1   
    30    12    13 1   
    31    14    12 1   
@<TRIPOS>SUBSTRUCTURE
     1 MOL         1 TEMP              0 ****  ****    0 ROOT
