@<TRIPOS>MOLECULE
MOL
   35    37     1     0     0
SMALL
No Charge or Current Charge


@<TRIPOS>ATOM
      1 C1          36.4100    10.1160    34.6260 c2         1 MOL       0.000000
      2 C2          37.3670     9.7810    35.6220 c3         1 MOL       0.000000
      3 C3          37.5320    10.6690    36.7260 c2         1 MOL       0.000000
      4 N1          36.8810    11.8090    36.8080 n2         1 MOL       0.000000
      5 C4          36.0010    12.1860    35.8510 c3         1 MOL       0.000000
      6 N2          35.6860    11.3780    34.8010 nh         1 MOL       0.000000
      7 H1          34.9480    11.6510    34.1370 hn         1 MOL       0.000000
      8 C5          36.1640     9.3240    33.5180 c2         1 MOL       0.000000
      9 C6          36.8760     8.1340    33.3730 c3         1 MOL       0.000000
     10 C7          37.8170     7.7400    34.3500 c2         1 MOL       0.000000
     11 C8          38.0780     8.5240    35.3950 c2         1 MOL       0.000000
     12 S1          39.3900     8.0910    36.5460 ss         1 MOL       0.000000
     13 C9          39.7910     6.4180    36.0760 ca         1 MOL       0.000000
     14 C10         40.0590     5.4950    37.0520 ca         1 MOL       0.000000
     15 C11         40.4210     4.1670    36.7090 ca         1 MOL       0.000000
     16 C12         40.5820     3.8760    35.3260 ca         1 MOL       0.000000
     17 C13         40.3120     4.7990    34.3360 ca         1 MOL       0.000000
     18 C14         39.9410     6.1440    34.6850 ca         1 MOL       0.000000
     19 N3          38.3640    10.5690    37.7800 nh         1 MOL       0.000000
     20 H2          39.3150    10.9600    37.7240 hn         1 MOL       0.000000
     21 H3          38.0500    10.1020    38.6430 hn         1 MOL       0.000000
     22 N4          35.3280    13.3410    35.8760 n3         1 MOL       0.000000
     23 H4          34.4950    13.4640    35.2830 hn         1 MOL       0.000000
     24 H5          35.6430    14.1070    36.4890 hn         1 MOL       0.000000
     25 H6          38.0690     9.7970    36.4300 hc         1 MOL       0.000000
     26 H7          36.9410    12.2740    36.3550 h3         1 MOL       0.000000
     27 H8          35.4670     9.6090    32.8120 ha         1 MOL       0.000000
     28 H9          37.4070     8.2050    32.4470 hc         1 MOL       0.000000
     29 H10         36.1150     7.3860    33.4550 hc         1 MOL       0.000000
     30 H11         38.3070     6.8370    34.2530 ha         1 MOL       0.000000
     31 H12         39.9970     5.7680    38.0450 ha         1 MOL       0.000000
     32 H13         40.5610     3.4430    37.4310 ha         1 MOL       0.000000
     33 H14         40.9140     2.9380    35.0520 ha         1 MOL       0.000000
     34 H15         40.3760     4.5240    33.3430 ha         1 MOL       0.000000
     35 H16         39.7920     6.8710    33.9680 ha         1 MOL       0.000000
@<TRIPOS>BOND
     1     1     6 1   
     2     1     2 1   
     3     2     3 1   
     4     2    25 1   
     5     3     4 2   
     6     3    19 1   
     7     5    22 1   
     8     5     4 1   
     9     5    26 1   
    10     6     5 1   
    11     7     6 1   
    12     8     1 2   
    13     8    27 1   
    14     9     8 1   
    15     9    10 1   
    16     9    28 1   
    17     9    29 1   
    18    10    11 2   
    19    10    30 1   
    20    11     2 1   
    21    11    12 1   
    22    13    12 1   
    23    13    14 ar  
    24    14    31 1   
    25    15    14 ar  
    26    15    32 1   
    27    16    15 ar  
    28    16    33 1   
    29    17    18 ar  
    30    17    16 ar  
    31    17    34 1   
    32    18    13 ar  
    33    18    35 1   
    34    19    21 1   
    35    20    19 1   
    36    22    24 1   
    37    23    22 1   
@<TRIPOS>SUBSTRUCTURE
     1 MOL         1 TEMP              0 ****  ****    0 ROOT
