@<TRIPOS>MOLECULE
MOL
   40    42     1     0     0
SMALL
No Charge or Current Charge


@<TRIPOS>ATOM
      1 N1           8.4750    18.8660    26.2680 na         1 MOL       0.000000
      2 C1           9.7230    18.6650    26.7890 cc         1 MOL       0.000000
      3 C2           9.6960    19.1620    28.0890 cd         1 MOL       0.000000
      4 C3           8.4280    19.7170    28.2240 cd         1 MOL       0.000000
      5 N2           7.6990    19.5390    27.1390 nc         1 MOL       0.000000
      6 C4           7.8600    18.6060    24.9730 ca         1 MOL       0.000000
      7 C5           7.0360    17.5190    24.8650 ca         1 MOL       0.000000
      8 C6           6.5190    17.1940    23.6190 ca         1 MOL       0.000000
      9 C7           6.8310    17.9700    22.5280 ca         1 MOL       0.000000
     10 C8           7.6520    19.0750    22.6250 ca         1 MOL       0.000000
     11 C9           8.1750    19.3930    23.8830 ca         1 MOL       0.000000
     12 S1           6.2670    17.5040    20.8970 sy         1 MOL       0.000000
     13 O1           5.6890    18.6390    20.3000 o          1 MOL       0.000000
     14 O2           5.3840    16.3850    21.1160 o          1 MOL       0.000000
     15 N3           7.5320    17.0480    20.0500 n3         1 MOL       0.000000
     16 H1           8.4060    17.5900    20.0970 hn         1 MOL       0.000000
     17 C10         10.8700    17.9470    26.2460 ca         1 MOL       0.000000
     18 C11         12.1190    18.2290    26.7770 ca         1 MOL       0.000000
     19 C12         13.2400    17.6080    26.2800 ca         1 MOL       0.000000
     20 C13         13.1270    16.6620    25.2870 ca         1 MOL       0.000000
     21 C14         14.3690    15.9970    24.7510 c3         1 MOL       0.000000
     22 C15         11.8690    16.3160    24.8070 ca         1 MOL       0.000000
     23 C16         10.7630    16.9830    25.2650 ca         1 MOL       0.000000
     24 C17          7.8800    20.4520    29.3980 c3         1 MOL       0.000000
     25 F1           6.5830    20.6150    29.3830 f          1 MOL       0.000000
     26 F2           8.4650    21.6220    29.6310 f          1 MOL       0.000000
     27 F3           8.1430    19.7670    30.5040 f          1 MOL       0.000000
     28 H2          10.4480    19.1270    28.7940 ha         1 MOL       0.000000
     29 H3           6.8030    16.9510    25.6950 ha         1 MOL       0.000000
     30 H4           5.9030    16.3730    23.5120 ha         1 MOL       0.000000
     31 H5           7.8730    19.6480    21.7960 ha         1 MOL       0.000000
     32 H6           8.7930    20.2120    23.9960 ha         1 MOL       0.000000
     33 H7           7.7580    16.0990    20.3460 hn         1 MOL       0.000000
     34 H8          12.2080    18.9080    27.5490 ha         1 MOL       0.000000
     35 H9          14.1710    17.8520    26.6530 ha         1 MOL       0.000000
     36 H10         14.0980    15.2950    23.9910 hc         1 MOL       0.000000
     37 H11         14.8710    15.4860    25.5460 hc         1 MOL       0.000000
     38 H12         15.0200    16.7380    24.3360 hc         1 MOL       0.000000
     39 H13         11.7690    15.5620    24.1100 ha         1 MOL       0.000000
     40 H14          9.8360    16.7610    24.8700 ha         1 MOL       0.000000
@<TRIPOS>BOND
     1     1     2 1   
     2     1     5 1   
     3     2     3 2   
     4     3     4 1   
     5     3    28 1   
     6     4    24 1   
     7     5     4 2   
     8     6     1 1   
     9     7     6 ar  
    10     7    29 1   
    11     8     7 ar  
    12     8    30 1   
    13     9    10 ar  
    14     9     8 ar  
    15    10    11 ar  
    16    10    31 1   
    17    11     6 ar  
    18    11    32 1   
    19    12    14 2   
    20    12     9 1   
    21    13    12 2   
    22    15    16 1   
    23    15    12 1   
    24    15    33 1   
    25    17    18 ar  
    26    17     2 1   
    27    18    34 1   
    28    19    18 ar  
    29    19    35 1   
    30    20    19 ar  
    31    21    20 1   
    32    21    36 1   
    33    21    37 1   
    34    21    38 1   
    35    22    23 ar  
    36    22    20 ar  
    37    22    39 1   
    38    23    17 ar  
    39    23    40 1   
    40    24    26 1   
    41    24    27 1   
    42    25    24 1   
@<TRIPOS>SUBSTRUCTURE
     1 MOL         1 TEMP              0 ****  ****    0 ROOT
