MODEL 1
REMARK VINA RESULT:      -4.2      0.000      0.000
REMARK  5 active torsions:
REMARK  status: ('A' for Active; 'I' for Inactive)
REMARK    1  A    between atoms: C_2  and  C1_4 
REMARK    2  A    between atoms: C1_4  and  O2_5 
REMARK    3  A    between atoms: C1_4  and  C2_7 
REMARK    4  A    between atoms: C2_7  and  C5_10 
REMARK    5  A    between atoms: C5_10  and  O3_11 
ROOT
ATOM      1  C1  UNL d           3.472  -1.875  16.652  0.00  0.00     0.228 C 
ENDROOT
BRANCH   1   2
ATOM      2  C   UNL d           4.398  -0.674  16.267  0.00  0.00     0.203 C 
ATOM      3  O   UNL d           5.424  -0.439  17.037  0.00  0.00    -0.646 OA
ATOM      4  O1  UNL d           4.160  -0.007  15.252  0.00  0.00    -0.646 OA
ENDBRANCH   1   2
BRANCH   1   5
ATOM      5  O2  UNL d           3.025  -2.527  15.414  0.00  0.00    -0.384 OA
ATOM      6  H1  UNL d           2.781  -3.508  15.611  0.00  0.00     0.210 HD
ENDBRANCH   1   5
BRANCH   1   7
ATOM      7  C2  UNL d           2.217  -1.399  17.506  0.00  0.00     0.009 C 
ATOM      8  C3  UNL d           1.999  -2.305  18.716  0.00  0.00     0.020 C 
ATOM      9  C4  UNL d           2.385   0.040  17.953  0.00  0.00     0.020 C 
BRANCH   7  10
ATOM     10  C5  UNL d           0.999  -1.527  16.558  0.00  0.00     0.176 C 
BRANCH  10  11
ATOM     11  O3  UNL d           0.395  -2.805  16.669  0.00  0.00    -0.400 OA
ATOM     12  H10 UNL d           1.104  -3.497  16.950  0.00  0.00     0.209 HD
ENDBRANCH  10  11
ENDBRANCH   7  10
ENDBRANCH   1   7
TORSDOF 5
ENDMDL
MODEL 2
REMARK VINA RESULT:      -4.2     11.008     12.330
REMARK  5 active torsions:
REMARK  status: ('A' for Active; 'I' for Inactive)
REMARK    1  A    between atoms: C_2  and  C1_4 
REMARK    2  A    between atoms: C1_4  and  O2_5 
REMARK    3  A    between atoms: C1_4  and  C2_7 
REMARK    4  A    between atoms: C2_7  and  C5_10 
REMARK    5  A    between atoms: C5_10  and  O3_11 
ROOT
ATOM      1  C1  UNL d           1.395   8.305   9.666  0.00  0.00     0.228 C 
ENDROOT
BRANCH   1   2
ATOM      2  C   UNL d           0.851   9.053  10.928  0.00  0.00     0.203 C 
ATOM      3  O   UNL d           0.253  10.196  10.735  0.00  0.00    -0.646 OA
ATOM      4  O1  UNL d           0.970   8.545  12.050  0.00  0.00    -0.646 OA
ENDBRANCH   1   2
BRANCH   1   5
ATOM      5  O2  UNL d           1.077   6.878   9.803  0.00  0.00    -0.384 OA
ATOM      6  H1  UNL d           1.088   6.618  10.799  0.00  0.00     0.210 HD
ENDBRANCH   1   5
BRANCH   1   7
ATOM      7  C2  UNL d           2.964   8.505   9.496  0.00  0.00     0.009 C 
ATOM      8  C3  UNL d           3.357   8.554   8.021  0.00  0.00     0.020 C 
ATOM      9  C4  UNL d           3.426   9.764  10.203  0.00  0.00     0.020 C 
BRANCH   7  10
ATOM     10  C5  UNL d           3.612   7.257  10.146  0.00  0.00     0.176 C 
BRANCH  10  11
ATOM     11  O3  UNL d           4.038   6.330   9.162  0.00  0.00    -0.400 OA
ATOM     12  H10 UNL d           4.651   6.804   8.485  0.00  0.00     0.209 HD
ENDBRANCH  10  11
ENDBRANCH   7  10
ENDBRANCH   1   7
TORSDOF 5
ENDMDL
MODEL 3
REMARK VINA RESULT:      -4.2      1.064      1.515
REMARK  5 active torsions:
REMARK  status: ('A' for Active; 'I' for Inactive)
REMARK    1  A    between atoms: C_2  and  C1_4 
REMARK    2  A    between atoms: C1_4  and  O2_5 
REMARK    3  A    between atoms: C1_4  and  C2_7 
REMARK    4  A    between atoms: C2_7  and  C5_10 
REMARK    5  A    between atoms: C5_10  and  O3_11 
ROOT
ATOM      1  C1  UNL d           3.213  -1.970  17.044  0.00  0.00     0.228 C 
ENDROOT
BRANCH   1   2
ATOM      2  C   UNL d           4.452  -1.410  17.819  0.00  0.00     0.203 C 
ATOM      3  O   UNL d           5.146  -0.469  17.239  0.00  0.00    -0.646 OA
ATOM      4  O1  UNL d           4.724  -1.838  18.947  0.00  0.00    -0.646 OA
ENDBRANCH   1   2
BRANCH   1   5
ATOM      5  O2  UNL d           3.313  -1.540  15.644  0.00  0.00    -0.384 OA
ATOM      6  H1  UNL d           3.872  -0.677  15.588  0.00  0.00     0.210 HD
ENDBRANCH   1   5
BRANCH   1   7
ATOM      7  C2  UNL d           1.845  -1.461  17.678  0.00  0.00     0.009 C 
ATOM      8  C3  UNL d           1.397  -2.371  18.821  0.00  0.00     0.020 C 
ATOM      9  C4  UNL d           1.977  -0.032  18.167  0.00  0.00     0.020 C 
BRANCH   7  10
ATOM     10  C5  UNL d           0.804  -1.543  16.534  0.00  0.00     0.176 C 
BRANCH  10  11
ATOM     11  O3  UNL d           0.645  -2.876  16.081  0.00  0.00    -0.400 OA
ATOM     12  H10 UNL d          -0.354  -3.126  16.091  0.00  0.00     0.209 HD
ENDBRANCH  10  11
ENDBRANCH   7  10
ENDBRANCH   1   7
TORSDOF 5
ENDMDL
