@<TRIPOS>MOLECULE
LIGAND
   45    45     1     0     0
SMALL
No Charge or Current Charge


@<TRIPOS>ATOM
      1 C           19.5710    33.0360    16.1000 c3         1 UNL      -0.000400
      2 H           18.9580    32.1470    16.2230 h1         1 UNL       0.040700
      3 C1          18.7930    34.0790    15.2970 c3         1 UNL      -0.053600
      4 H1          18.5040    33.7050    14.3020 hc         1 UNL       0.024000
      5 H2          17.8670    34.3490    15.8300 hc         1 UNL       0.024000
      6 H3          19.3840    34.9970    15.1530 hc         1 UNL       0.024000
      7 C2          19.9230    33.5930    17.4710 c3         1 UNL      -0.053600
      8 H4          20.4700    32.8660    18.0910 hc         1 UNL       0.024000
      9 H5          20.5480    34.4960    17.3850 hc         1 UNL       0.024000
     10 H6          19.0050    33.8680    18.0150 hc         1 UNL       0.024000
     11 S           21.0510    32.5290    15.2710 ss         1 UNL      -0.157900
     12 C3          20.8100    30.7630    15.0850 c3         1 UNL      -0.004600
     13 H7          21.5210    30.4650    14.2970 h1         1 UNL       0.037700
     14 H8          19.7990    30.5610    14.6890 h1         1 UNL       0.037700
     15 C4          21.0560    29.9950    16.3750 c3         1 UNL      -0.025800
     16 H9          20.4540    30.5010    17.1460 hc         1 UNL       0.028900
     17 H10         22.1010    30.1020    16.7200 hc         1 UNL       0.028900
     18 C5          20.6120    28.5460    16.2170 c3         1 UNL       0.040500
     19 H11         19.9050    28.3740    15.3890 h1         1 UNL       0.048900
     20 N           21.9220    27.9620    15.8740 n3         1 UNL      -0.324700
     21 H12         22.2790    28.4010    15.0130 hn         1 UNL       0.118600
     22 H13         22.5850    28.1290    16.6440 hn         1 UNL       0.118600
     23 C6          20.0220    27.9640    17.5610 c3         1 UNL       0.147300
     24 H14         20.6470    28.2990    18.4050 h1         1 UNL       0.070600
     25 O           20.0380    26.5410    17.5620 oh         1 UNL      -0.381000
     26 H15         19.0710    26.1860    17.5630 ho         1 UNL       0.210500
     27 C7          18.5920    28.4240    17.7420 c          1 UNL       0.259200
     28 O1          17.6390    27.8590    17.2390 o          1 UNL      -0.271400
     29 N1          18.4980    29.6570    18.5610 n          1 UNL      -0.232000
     30 H16         19.3580    30.0610    18.9580 hn         1 UNL       0.172900
     31 N2          17.2150    30.3150    18.8200 n          1 UNL      -0.230300
     32 H17         16.7900    30.2270    19.7540 hn         1 UNL       0.173100
     33 C8          16.5600    31.0460    17.8580 c          1 UNL       0.260200
     34 O2          17.0760    31.1400    16.7250 o          1 UNL      -0.268700
     35 C9          15.2500    31.7070    18.1670 ca         1 UNL       0.039500
     36 C10         14.5710    31.7310    19.5060 ca         1 UNL      -0.049500
     37 H18         15.0290    31.2400    20.3650 ha         1 UNL       0.062500
     38 C11         13.2610    32.4350    19.6490 ca         1 UNL      -0.059700
     39 H19         12.7640    32.4580    20.6190 ha         1 UNL       0.061800
     40 C12         12.6260    33.1070    18.4770 ca         1 UNL      -0.043300
     41 H20         11.6700    33.6190    18.5820 ha         1 UNL       0.063200
     42 C13         13.3160    33.0650    17.1750 ca         1 UNL       0.041700
     43 C14         14.5890    32.3900    17.0110 ca         1 UNL      -0.031200
     44 H21         15.0710    32.3800    16.0330 ha         1 UNL       0.064000
     45 Cl          12.6480    33.8090    15.7870 cl         1 UNL      -0.083500
@<TRIPOS>BOND
     1     1     3 1   
     2     1     7 1   
     3     1    11 1   
     4     1     2 1   
     5     3     4 1   
     6     3     5 1   
     7     3     6 1   
     8     7     8 1   
     9     7     9 1   
    10     7    10 1   
    11    11    12 1   
    12    12    15 1   
    13    12    13 1   
    14    12    14 1   
    15    15    18 1   
    16    15    16 1   
    17    15    17 1   
    18    18    20 1   
    19    18    23 1   
    20    18    19 1   
    21    20    21 1   
    22    20    22 1   
    23    23    25 1   
    24    23    27 1   
    25    23    24 1   
    26    25    26 1   
    27    27    28 2   
    28    27    29 1   
    29    29    31 1   
    30    29    30 1   
    31    31    33 1   
    32    31    32 1   
    33    33    34 2   
    34    33    35 1   
    35    35    36 ar  
    36    35    43 ar  
    37    36    38 ar  
    38    36    37 1   
    39    38    40 ar  
    40    38    39 1   
    41    40    42 ar  
    42    40    41 1   
    43    42    43 ar  
    44    42    45 1   
    45    43    44 1   
@<TRIPOS>SUBSTRUCTURE
     1 UNL         1 TEMP              0 ****  ****    0 ROOT
