@<TRIPOS>MOLECULE
MOL
   25    25     1     0     0
SMALL
No Charge or Current Charge


@<TRIPOS>ATOM
      1 C1          48.3820    28.2400    12.2560 c3         1 MOL       0.000000
      2 C2          47.0610    28.6370    11.5970 c3         1 MOL       0.000000
      3 N1          46.1420    27.5070    11.7270 n4         1 MOL       0.000000
      4 H1          45.1530    27.6550    11.6930 hn         1 MOL       0.000000
      5 H2          46.3970    26.7980    11.0510 hn         1 MOL       0.000000
      6 H3          46.4270    27.0420    12.5880 hn         1 MOL       0.000000
      7 C3          47.2940    29.0030    10.1490 c          1 MOL       0.000000
      8 O1          48.4030    28.8500     9.5620 o          1 MOL       0.000000
      9 O2          46.3040    29.4390     9.5650 oh         1 MOL       0.000000
     10 C4          48.2720    27.6310    13.6410 ca         1 MOL       0.000000
     11 C5          47.5260    28.2620    14.5890 ca         1 MOL       0.000000
     12 C6          47.4490    27.7170    15.8410 ca         1 MOL       0.000000
     13 C7          48.0620    26.5330    16.1560 ca         1 MOL       0.000000
     14 C8          48.8460    25.8800    15.2120 ca         1 MOL       0.000000
     15 C9          48.9490    26.4600    13.9620 ca         1 MOL       0.000000
     16 O3          47.9590    26.0970    17.3480 oh         1 MOL       0.000000
     17 H4          48.6550    25.3530    17.5040 ho         1 MOL       0.000000
     18 H5          48.9890    29.1180    12.3310 hc         1 MOL       0.000000
     19 H6          48.7980    27.4750    11.6340 hc         1 MOL       0.000000
     20 H7          46.6370    29.4960    12.0730 hx         1 MOL       0.000000
     21 H8          45.4950    29.5420    10.0270 ho         1 MOL       0.000000
     22 H9          47.0270    29.1370    14.3670 ha         1 MOL       0.000000
     23 H10         46.9130    28.2130    16.5700 ha         1 MOL       0.000000
     24 H11         49.3320    24.9970    15.4360 ha         1 MOL       0.000000
     25 H12         49.5440    26.0120    13.2480 ha         1 MOL       0.000000
@<TRIPOS>BOND
     1     1    10 1   
     2     1    18 1   
     3     1    19 1   
     4     2     3 1   
     5     2     1 1   
     6     2    20 1   
     7     3     6 1   
     8     4     3 1   
     9     5     3 1   
    10     7     2 1   
    11     8     7 2   
    12     9     7 1   
    13     9    21 1   
    14    10    15 ar  
    15    10    11 ar  
    16    11    12 ar  
    17    11    22 1   
    18    12    13 ar  
    19    12    23 1   
    20    13    16 1   
    21    14    13 ar  
    22    14    24 1   
    23    15    14 ar  
    24    15    25 1   
    25    16    17 1   
@<TRIPOS>SUBSTRUCTURE
     1 MOL         1 TEMP              0 ****  ****    0 ROOT
