@<TRIPOS>MOLECULE
MOL
   33    31     1     0     0
SMALL
No Charge or Current Charge


@<TRIPOS>ATOM
      1 N1           5.1950    30.5870    16.5590 n4         1 MOL       0.000000
      2 H1           6.0820    31.0530    16.5040 hn         1 MOL       0.000000
      3 H2           4.5370    30.9850    15.8670 hn         1 MOL       0.000000
      4 C1           4.6060    30.6310    17.9770 c3         1 MOL       0.000000
      5 C2           5.2000    29.2050    16.1100 c1         1 MOL       0.000000
      6 H3           6.1050    29.0520    15.4910 hx         1 MOL       0.000000
      7 C3           5.2100    28.3690    17.3650 c3         1 MOL       0.000000
      8 C4           4.2190    29.0990    18.2190 c3         1 MOL       0.000000
      9 C5           4.0320    28.8720    15.1030 c          1 MOL       0.000000
     10 O1           3.7740    29.7680    14.2700 o          1 MOL       0.000000
     11 O2           3.4970    27.7260    15.2120 oh         1 MOL       0.000000
     12 C6           6.6210    28.2160    18.1210 c3         1 MOL       0.000000
     13 C7           7.8020    28.3880    17.1570 c          1 MOL       0.000000
     14 O3           7.4800    28.5320    15.9700 o          1 MOL       0.000000
     15 O4           8.9710    28.3740    17.6040 oh         1 MOL       0.000000
     16 C8           4.0020    28.5960    19.7030 c2         1 MOL       0.000000
     17 C9           3.5130    27.4140    19.8690 c2         1 MOL       0.000000
     18 C10          4.3700    29.5000    20.8180 c3         1 MOL       0.000000
     19 H4           3.7430    31.2620    18.0210 hx         1 MOL       0.000000
     20 H5           5.2740    31.0300    18.7110 hx         1 MOL       0.000000
     21 H6           4.8270    27.3960    17.1390 hc         1 MOL       0.000000
     22 H7           5.3640    28.9300    16.4670 hc         1 MOL       0.000000
     23 H8           3.2080    28.8970    17.9330 hc         1 MOL       0.000000
     24 H9           4.7720    29.0920    15.7870 h5         1 MOL       0.000000
     25 H10          3.7810    27.1390    15.8850 ho         1 MOL       0.000000
     26 H11          6.6870    28.9610    18.8870 hc         1 MOL       0.000000
     27 H12          6.6710    27.2320    18.5380 hc         1 MOL       0.000000
     28 H13          9.1200    28.2590    18.5220 ho         1 MOL       0.000000
     29 H14          3.2770    26.8330    19.0490 ha         1 MOL       0.000000
     30 H15          3.3580    27.0490    20.8220 ha         1 MOL       0.000000
     31 H16          4.7510    30.4180    20.4220 hc         1 MOL       0.000000
     32 H17          5.1200    29.0340    21.4220 hc         1 MOL       0.000000
     33 H18          3.5050    29.7010    21.4150 hc         1 MOL       0.000000
@<TRIPOS>BOND
     1     1     4 1   
     2     2     1 1   
     3     3     1 1   
     4     4     8 1   
     5     4    19 1   
     6     4    20 1   
     7     5     1 1   
     8     6     5 1   
     9     7    12 1   
    10     7     8 1   
    11     7    21 1   
    12     7    22 1   
    13     8    16 1   
    14     8    23 1   
    15     9    11 1   
    16     9    24 1   
    17    10     9 2   
    18    11    25 1   
    19    12    26 1   
    20    12    27 1   
    21    13    15 1   
    22    13    12 1   
    23    14    13 2   
    24    15    28 1   
    25    16    17 2   
    26    16    18 1   
    27    17    29 1   
    28    17    30 1   
    29    18    31 1   
    30    18    32 1   
    31    18    33 1   
@<TRIPOS>SUBSTRUCTURE
     1 MOL         1 TEMP              0 ****  ****    0 ROOT
