@<TRIPOS>MOLECULE
LIGAND
   18    18     1     0     0
SMALL
No Charge or Current Charge


@<TRIPOS>ATOM
      1 C          -13.3730    -6.7640    21.1270 cc         1 UNL       0.257200
      2 C1         -15.2340    -5.5800    20.6200 cc         1 UNL       0.189300
      3 C2         -17.6860    -5.3980    20.2930 c          1 UNL       0.215600
      4 C3         -17.8640    -6.8770    20.5800 c3         1 UNL       0.012500
      5 H          -18.9080    -7.0780    20.8180 hc         1 UNL       0.032300
      6 H1         -17.5740    -7.4550    19.7030 hc         1 UNL       0.032300
      7 H2         -17.2380    -7.1620    21.4250 hc         1 UNL       0.032300
      8 N          -11.0910    -7.8990    20.3810 n2         1 UNL      -0.103200
      9 H3         -10.9250    -7.0100    19.8880 hn         1 UNL       0.169500
     10 N1         -14.1830    -4.8330    20.5410 nd         1 UNL      -0.123900
     11 N2         -13.0520    -5.5400    20.8440 nd         1 UNL      -0.119000
     12 N3         -16.3850    -4.9120    20.3180 n          1 UNL      -0.263500
     13 H4         -16.2740    -3.9170    20.0770 hn         1 UNL       0.156800
     14 O          -12.8010    -9.2720    21.6180 o          1 UNL      -0.149800
     15 O1         -11.6250    -7.6290    22.8930 o          1 UNL      -0.149800
     16 O2         -18.6970    -4.7370    20.0460 o          1 UNL      -0.275700
     17 S          -12.1460    -7.9640    21.5690 sy         1 UNL       0.097800
     18 S1         -15.0170    -7.1920    21.0630 ss         1 UNL      -0.010500
@<TRIPOS>BOND
     1     1    11 2   
     2     1    17 1   
     3     1    18 1   
     4     2    10 2   
     5     2    12 1   
     6     2    18 1   
     7     3     4 1   
     8     3    12 1   
     9     3    16 2   
    10     4     5 1   
    11     4     6 1   
    12     4     7 1   
    13     8    17 2   
    14     8     9 1   
    15    10    11 1   
    16    12    13 1   
    17    14    17 1   
    18    15    17 2   
@<TRIPOS>SUBSTRUCTURE
     1 UNL         1 TEMP              0 ****  ****    0 ROOT
