@<TRIPOS>MOLECULE
MOL
   55    58     1     0     0
SMALL
No Charge or Current Charge


@<TRIPOS>ATOM
      1 C1         -17.5250    -5.7150    22.1080 ca         1 MOL       0.000000
      2 C2         -16.8500    -5.6680    20.8790 ca         1 MOL       0.000000
      3 C3         -16.4450    -4.4220    20.3200 ca         1 MOL       0.000000
      4 C4         -16.6620    -3.2030    20.9590 ca         1 MOL       0.000000
      5 C5         -17.3660    -3.2500    22.2340 ca         1 MOL       0.000000
      6 C6         -17.7920    -4.4950    22.7720 ca         1 MOL       0.000000
      7 N1         -15.8780    -4.1840    19.0740 na         1 MOL       0.000000
      8 C7         -15.7060    -2.8120    18.9760 cc         1 MOL       0.000000
      9 C8         -16.1490    -2.1410    20.1840 cd         1 MOL       0.000000
     10 C9         -17.6150    -2.0150    23.0010 c3         1 MOL       0.000000
     11 C10        -15.6900    -5.2090    18.0390 c3         1 MOL       0.000000
     12 C11        -14.2500    -5.5830    17.7950 ca         1 MOL       0.000000
     13 C12        -13.6330    -5.6330    16.5270 ca         1 MOL       0.000000
     14 C13        -12.3400    -6.1750    16.3940 ca         1 MOL       0.000000
     15 C14        -11.6780    -6.6280    17.5520 ca         1 MOL       0.000000
     16 C15        -12.2860    -6.5010    18.8230 ca         1 MOL       0.000000
     17 C16        -13.5680    -5.9820    18.9350 ca         1 MOL       0.000000
     18 C17        -11.6380    -6.8560    20.0730 ce         1 MOL       0.000000
     19 N2         -11.1490    -8.0890    20.1350 nh         1 MOL       0.000000
     20 H1         -10.6760    -8.4120    20.9900 hn         1 MOL       0.000000
     21 H2         -11.2430    -8.7210    19.3260 hn         1 MOL       0.000000
     22 N3         -11.4900    -5.9950    21.0820 nh         1 MOL       0.000000
     23 H3         -11.9260    -5.0630    21.0320 hn         1 MOL       0.000000
     24 H4         -10.9400    -6.2620    21.9110 hn         1 MOL       0.000000
     25 C18        -15.1930    -2.1430    17.8340 c          1 MOL       0.000000
     26 N4         -16.0710    -1.6210    16.9440 n          1 MOL       0.000000
     27 H5         -17.0840    -1.7070    17.1050 hn         1 MOL       0.000000
     28 O1         -13.9770    -2.0570    17.6440 o          1 MOL       0.000000
     29 C19        -15.5740    -0.9340    15.7510 c3         1 MOL       0.000000
     30 C20        -15.4790     0.5890    15.8130 ca         1 MOL       0.000000
     31 C21        -15.3620     1.3220    14.6220 ca         1 MOL       0.000000
     32 C22        -15.1500     2.7110    14.6240 ca         1 MOL       0.000000
     33 C23        -15.0740     3.3820    15.8550 ca         1 MOL       0.000000
     34 Cl1        -14.8930     3.5640    13.1100 cl         1 MOL       0.000000
     35 C24        -15.1940     2.6740    17.0670 ca         1 MOL       0.000000
     36 C25        -15.4070     1.2790    17.0320 ca         1 MOL       0.000000
     37 Cl2        -15.0140     3.4880    18.6200 cl         1 MOL       0.000000
     38 H6         -17.8190    -6.6160    22.5170 ha         1 MOL       0.000000
     39 H7         -16.6450    -6.5450    20.3750 ha         1 MOL       0.000000
     40 H8         -18.3070    -4.5090    23.6660 ha         1 MOL       0.000000
     41 H9         -16.1010    -1.1370    20.4180 ha         1 MOL       0.000000
     42 H10        -17.2350    -1.1750    22.4580 hc         1 MOL       0.000000
     43 H11        -17.1230    -2.0790    23.9490 hc         1 MOL       0.000000
     44 H12        -18.6680    -1.8950    23.1520 hc         1 MOL       0.000000
     45 H13        -16.2190    -6.0890    18.3380 h1         1 MOL       0.000000
     46 H14        -16.0590    -4.7940    17.1240 h1         1 MOL       0.000000
     47 H15        -14.1290    -5.2720    15.6970 ha         1 MOL       0.000000
     48 H16        -11.8870    -6.2390    15.4690 ha         1 MOL       0.000000
     49 H17        -10.7420    -7.0560    17.4730 ha         1 MOL       0.000000
     50 H18        -14.0120    -5.8930    19.8620 ha         1 MOL       0.000000
     51 H19        -14.5930    -1.3100    15.5480 h1         1 MOL       0.000000
     52 H20        -16.3020    -1.1350    14.9930 h1         1 MOL       0.000000
     53 H21        -15.4340     0.8270    13.7190 ha         1 MOL       0.000000
     54 H22        -14.9290     4.4040    15.8720 ha         1 MOL       0.000000
     55 H23        -15.5110     0.7590    17.9170 ha         1 MOL       0.000000
@<TRIPOS>BOND
     1     1     6 ar  
     2     1    38 1   
     3     2     1 ar  
     4     2    39 1   
     5     3     2 ar  
     6     3     4 ar  
     7     4     5 ar  
     8     5     6 ar  
     9     5    10 1   
    10     6    40 1   
    11     7     3 1   
    12     8     7 1   
    13     8     9 2   
    14     9     4 1   
    15     9    41 1   
    16    10    42 1   
    17    10    43 1   
    18    10    44 1   
    19    11     7 1   
    20    11    45 1   
    21    11    46 1   
    22    12    11 1   
    23    12    17 ar  
    24    13    12 ar  
    25    13    47 1   
    26    14    13 ar  
    27    14    15 ar  
    28    14    48 1   
    29    15    16 ar  
    30    15    49 1   
    31    16    17 ar  
    32    16    18 1   
    33    17    50 1   
    34    18    19 2   
    35    18    22 1   
    36    19    20 1   
    37    21    19 1   
    38    22    24 1   
    39    23    22 1   
    40    25     8 1   
    41    26    27 1   
    42    26    25 1   
    43    28    25 2   
    44    29    30 1   
    45    29    26 1   
    46    29    51 1   
    47    29    52 1   
    48    30    36 ar  
    49    31    32 ar  
    50    31    30 ar  
    51    31    53 1   
    52    32    33 ar  
    53    33    35 ar  
    54    33    54 1   
    55    34    32 1   
    56    35    37 1   
    57    36    35 ar  
    58    36    55 1   
@<TRIPOS>SUBSTRUCTURE
     1 MOL         1 TEMP              0 ****  ****    0 ROOT
