@<TRIPOS>MOLECULE
MOL
   37    39     1     0     0
SMALL
No Charge or Current Charge


@<TRIPOS>ATOM
      1 C1          19.5770    18.0070    40.4000 c3         1 MOL       0.000000
      2 N1          19.9990    16.9090    41.2630 n4         1 MOL       0.000000
      3 H1          19.3830    16.8130    42.0640 hn         1 MOL       0.000000
      4 H2          20.8930    17.1550    41.6730 hn         1 MOL       0.000000
      5 C2          20.1580    16.0870    39.0310 c3         1 MOL       0.000000
      6 C3          20.0200    17.6750    38.9710 c3         1 MOL       0.000000
      7 C4          20.1460    15.6540    40.5370 c3         1 MOL       0.000000
      8 C5          18.9870    14.7110    40.9970 cc         1 MOL       0.000000
      9 C6          18.2440    14.8880    42.1650 cd         1 MOL       0.000000
     10 N2          17.3070    13.9900    42.3820 na         1 MOL       0.000000
     11 C7          17.3890    13.1240    41.2950 cd         1 MOL       0.000000
     12 H3          16.6560    13.9390    43.1790 hn         1 MOL       0.000000
     13 C8          16.6140    11.9370    40.9830 c          1 MOL       0.000000
     14 C9          18.4120    13.5350    40.4110 cc         1 MOL       0.000000
     15 O1          15.6970    11.4530    41.6570 o          1 MOL       0.000000
     16 N3          16.9890    11.2980    39.7620 n          1 MOL       0.000000
     17 C10         18.0190    11.7510    38.9050 cd         1 MOL       0.000000
     18 H4          16.4740    10.4500    39.4860 hn         1 MOL       0.000000
     19 N4          18.7650    12.8810    39.2020 nc         1 MOL       0.000000
     20 O2          21.3780    15.6340    38.3630 oh         1 MOL       0.000000
     21 H5          21.2940    15.7910    37.3490 ho         1 MOL       0.000000
     22 C11         18.0690    18.1820    40.5440 c3         1 MOL       0.000000
     23 S1          17.5660    18.7020    42.2080 ss         1 MOL       0.000000
     24 C12         17.2620    20.4470    41.9290 c3         1 MOL       0.000000
     25 O3          21.3250    18.3090    38.6960 oh         1 MOL       0.000000
     26 H6          21.4390    18.4350    37.6810 ho         1 MOL       0.000000
     27 H7          20.0260    18.9400    40.6690 hx         1 MOL       0.000000
     28 H8          19.3380    15.6330    38.5140 h1         1 MOL       0.000000
     29 H9          19.3550    18.0160    38.2060 h1         1 MOL       0.000000
     30 H10         21.0340    15.0850    40.7170 hx         1 MOL       0.000000
     31 H11         18.4180    15.6710    42.8150 h4         1 MOL       0.000000
     32 H12         18.2200    11.2280    38.0380 h5         1 MOL       0.000000
     33 H13         17.5960    17.2490    40.3220 h1         1 MOL       0.000000
     34 H14         17.7720    18.9550    39.8660 h1         1 MOL       0.000000
     35 H15         16.9490    20.9050    42.8440 h1         1 MOL       0.000000
     36 H16         16.4950    20.5620    41.1920 h1         1 MOL       0.000000
     37 H17         18.1610    20.9150    41.5850 h1         1 MOL       0.000000
@<TRIPOS>BOND
     1     1     6 1   
     2     1    22 1   
     3     1     2 1   
     4     1    27 1   
     5     2     4 1   
     6     2     3 1   
     7     5     6 1   
     8     5    28 1   
     9     6    29 1   
    10     7     5 1   
    11     7     8 1   
    12     7     2 1   
    13     7    30 1   
    14     8     9 2   
    15     9    10 1   
    16     9    31 1   
    17    10    12 1   
    18    11    10 1   
    19    13    11 1   
    20    13    15 2   
    21    14     8 1   
    22    14    11 2   
    23    16    13 1   
    24    17    19 2   
    25    17    16 1   
    26    17    32 1   
    27    18    16 1   
    28    19    14 1   
    29    20     5 1   
    30    21    20 1   
    31    22    23 1   
    32    22    33 1   
    33    22    34 1   
    34    24    23 1   
    35    24    35 1   
    36    24    36 1   
    37    24    37 1   
    38    25     6 1   
    39    26    25 1   
@<TRIPOS>SUBSTRUCTURE
     1 MOL         1 TEMP              0 ****  ****    0 ROOT
