@<TRIPOS>MOLECULE
MOL
   37    39     1     0     0
SMALL
No Charge or Current Charge


@<TRIPOS>ATOM
      1 C1          19.5830    18.3860    40.0610 c3         1 MOL       0.000000
      2 N1          19.8030    17.3440    41.0590 n4         1 MOL       0.000000
      3 H1          19.1060    17.3880    41.7960 hn         1 MOL       0.000000
      4 H2          20.6740    17.5440    41.5380 hn         1 MOL       0.000000
      5 C2          20.0880    16.2920    38.9390 c3         1 MOL       0.000000
      6 C3          20.1230    17.8710    38.7230 c3         1 MOL       0.000000
      7 C4          19.8870    16.0140    40.4690 c3         1 MOL       0.000000
      8 C5          18.5960    15.2370    40.8870 cc         1 MOL       0.000000
      9 C6          18.0650    14.1570    40.1830 cd         1 MOL       0.000000
     10 N2          16.9710    13.6310    40.6930 na         1 MOL       0.000000
     11 C7          16.7140    14.3870    41.8320 cd         1 MOL       0.000000
     12 H3          16.4260    12.8360    40.3280 hn         1 MOL       0.000000
     13 C8          15.6380    14.2830    42.8030 c          1 MOL       0.000000
     14 C9          17.6970    15.3890    41.9940 cc         1 MOL       0.000000
     15 O1          14.7080    13.4670    42.7920 o          1 MOL       0.000000
     16 N3          15.7060    15.2450    43.8560 n          1 MOL       0.000000
     17 C10         16.7150    16.2290    43.9780 cd         1 MOL       0.000000
     18 H4          14.9700    15.2210    44.5750 hn         1 MOL       0.000000
     19 N4          17.7410    16.3340    43.0520 nc         1 MOL       0.000000
     20 O2          21.3130    15.6600    38.4470 oh         1 MOL       0.000000
     21 H5          22.0980    15.9030    39.0680 ho         1 MOL       0.000000
     22 C11         18.0950    18.7170    40.0300 c3         1 MOL       0.000000
     23 S1          17.5250    19.5870    41.5160 ss         1 MOL       0.000000
     24 C12         16.3650    20.7490    40.7930 c3         1 MOL       0.000000
     25 O3          21.5080    18.3480    38.5310 oh         1 MOL       0.000000
     26 H6          21.5070    19.1600    37.8980 ho         1 MOL       0.000000
     27 H7          20.0990    19.2950    40.2900 hx         1 MOL       0.000000
     28 H8          19.2790    15.8700    38.3810 h1         1 MOL       0.000000
     29 H9          19.5730    18.1950    37.8640 h1         1 MOL       0.000000
     30 H10         20.6890    15.3840    40.7920 hx         1 MOL       0.000000
     31 H11         18.5000    13.7940    39.3200 h4         1 MOL       0.000000
     32 H12         16.6860    16.8840    44.7750 h5         1 MOL       0.000000
     33 H13         17.5450    17.8030    39.9390 h1         1 MOL       0.000000
     34 H14         17.9320    19.3690    39.1980 h1         1 MOL       0.000000
     35 H15         15.9340    21.3500    41.5660 h1         1 MOL       0.000000
     36 H16         15.5910    20.2120    40.2860 h1         1 MOL       0.000000
     37 H17         16.8780    21.3780    40.0960 h1         1 MOL       0.000000
@<TRIPOS>BOND
     1     1     6 1   
     2     1     2 1   
     3     1    27 1   
     4     2     4 1   
     5     2     3 1   
     6     5     6 1   
     7     5    28 1   
     8     6    29 1   
     9     7     5 1   
    10     7     8 1   
    11     7     2 1   
    12     7    30 1   
    13     8    14 1   
    14     9    10 1   
    15     9     8 2   
    16     9    31 1   
    17    10    11 1   
    18    11    14 2   
    19    11    13 1   
    20    12    10 1   
    21    13    16 1   
    22    14    19 1   
    23    15    13 2   
    24    16    17 1   
    25    16    18 1   
    26    17    32 1   
    27    19    17 2   
    28    20     5 1   
    29    20    21 1   
    30    22     1 1   
    31    22    23 1   
    32    22    33 1   
    33    22    34 1   
    34    24    23 1   
    35    24    35 1   
    36    24    36 1   
    37    24    37 1   
    38    25     6 1   
    39    26    25 1   
@<TRIPOS>SUBSTRUCTURE
     1 MOL         1 TEMP              0 ****  ****    0 ROOT
