@<TRIPOS>MOLECULE
MOL
   37    39     1     0     0
SMALL
No Charge or Current Charge


@<TRIPOS>ATOM
      1 C1          19.9310    17.1710    39.3810 c3         1 MOL       0.000000
      2 N1          20.0100    17.0800    40.8350 n4         1 MOL       0.000000
      3 H1          19.4530    17.8030    41.2800 hn         1 MOL       0.000000
      4 H2          20.9600    17.3000    41.1140 hn         1 MOL       0.000000
      5 C2          19.7310    14.8450    40.0530 c3         1 MOL       0.000000
      6 C3          20.1370    15.7620    38.8130 c3         1 MOL       0.000000
      7 C4          19.6730    15.7520    41.3310 c3         1 MOL       0.000000
      8 C5          18.2960    15.8640    42.0620 cc         1 MOL       0.000000
      9 C6          17.3750    14.8220    42.1690 cd         1 MOL       0.000000
     10 N2          16.2690    15.1080    42.8240 na         1 MOL       0.000000
     11 C7          16.4200    16.4370    43.2080 cd         1 MOL       0.000000
     12 H3          15.4690    14.4860    43.0110 hn         1 MOL       0.000000
     13 C8          15.5250    17.3050    43.9520 c          1 MOL       0.000000
     14 C9          17.6620    16.9440    42.7610 cc         1 MOL       0.000000
     15 O1          14.4100    17.0090    44.4010 o          1 MOL       0.000000
     16 N3          16.0290    18.6250    44.1600 n          1 MOL       0.000000
     17 C10         17.2830    19.0850    43.6970 cd         1 MOL       0.000000
     18 H4          15.4380    19.2870    44.6820 hn         1 MOL       0.000000
     19 N4          18.1390    18.2620    42.9820 nc         1 MOL       0.000000
     20 O2          20.6770    13.7430    40.2320 oh         1 MOL       0.000000
     21 H5          21.2950    13.6840    39.4110 ho         1 MOL       0.000000
     22 C11         18.5850    17.7850    39.0090 c3         1 MOL       0.000000
     23 S1          18.5500    18.4650    37.3280 ss         1 MOL       0.000000
     24 C12         17.0830    19.4930    37.4190 c3         1 MOL       0.000000
     25 O3          21.5580    15.5740    38.4590 oh         1 MOL       0.000000
     26 H6          21.8800    14.6580    38.8030 ho         1 MOL       0.000000
     27 H7          20.6880    17.8020    38.9640 hx         1 MOL       0.000000
     28 H8          18.7730    14.4010    39.8760 h1         1 MOL       0.000000
     29 H9          19.5770    15.5500    37.9260 h1         1 MOL       0.000000
     30 H10         20.3250    15.3220    42.0620 hx         1 MOL       0.000000
     31 H11         17.5490    13.8900    41.7620 h4         1 MOL       0.000000
     32 H12         17.5680    20.0570    43.8960 h5         1 MOL       0.000000
     33 H13         17.8330    17.0280    39.0850 h1         1 MOL       0.000000
     34 H14         18.4080    18.5960    39.6840 h1         1 MOL       0.000000
     35 H15         16.9260    19.9740    36.4760 h1         1 MOL       0.000000
     36 H16         17.2130    20.2340    38.1800 h1         1 MOL       0.000000
     37 H17         16.2350    18.8840    37.6550 h1         1 MOL       0.000000
@<TRIPOS>BOND
     1     1     6 1   
     2     1     2 1   
     3     1    27 1   
     4     2     4 1   
     5     2     3 1   
     6     2     7 1   
     7     5     6 1   
     8     5    20 1   
     9     5    28 1   
    10     6    29 1   
    11     7     5 1   
    12     7     8 1   
    13     7    30 1   
    14     8     9 2   
    15     8    14 1   
    16     9    10 1   
    17     9    31 1   
    18    10    12 1   
    19    10    11 1   
    20    11    13 1   
    21    13    16 1   
    22    13    15 2   
    23    14    19 1   
    24    14    11 2   
    25    16    18 1   
    26    17    16 1   
    27    17    32 1   
    28    19    17 2   
    29    21    20 1   
    30    22     1 1   
    31    22    33 1   
    32    22    34 1   
    33    23    24 1   
    34    23    22 1   
    35    24    35 1   
    36    24    36 1   
    37    24    37 1   
    38    25    26 1   
    39    25     6 1   
@<TRIPOS>SUBSTRUCTURE
     1 MOL         1 TEMP              0 ****  ****    0 ROOT
