@<TRIPOS>MOLECULE
MOL
   69    72     1     0     0
SMALL
No Charge or Current Charge


@<TRIPOS>ATOM
      1 C1          66.8910    30.3120   113.0270 ca         1 MOL       0.000000
      2 C2          66.3810    29.4270   112.0170 ca         1 MOL       0.000000
      3 C3          66.5230    30.1110   114.3870 ca         1 MOL       0.000000
      4 C4          65.5120    28.3710   112.3890 ca         1 MOL       0.000000
      5 C5          66.7950    29.5210   110.6480 cg         1 MOL       0.000000
      6 C6          65.6550    29.0430   114.7820 ca         1 MOL       0.000000
      7 C7          65.1540    28.1790   113.7490 ca         1 MOL       0.000000
      8 N1          67.1910    29.5980   109.5670 n1         1 MOL       0.000000
      9 O1          67.7670    31.3860   112.7510 os         1 MOL       0.000000
     10 C8          69.1640    31.1070   112.8240 ca         1 MOL       0.000000
     11 C9          69.8390    30.5130   111.7100 ca         1 MOL       0.000000
     12 C10         71.2220    30.2040   111.7000 ca         1 MOL       0.000000
     13 C11         71.9480    30.5220   112.9050 ca         1 MOL       0.000000
     14 C12         71.2920    31.1190   114.0300 ca         1 MOL       0.000000
     15 C13         69.9010    31.4120   113.9910 ca         1 MOL       0.000000
     16 C14         71.8810    29.5190   110.4030 c3         1 MOL       0.000000
     17 C15         73.4660    29.2330   110.5450 c          1 MOL       0.000000
     18 N2          73.9640    28.2660   111.4710 n          1 MOL       0.000000
     19 O2          74.2720    29.8690   109.8340 o          1 MOL       0.000000
     20 C16         73.1790    27.3920   112.3520 c3         1 MOL       0.000000
     21 C17         75.4110    28.0580   111.5680 c3         1 MOL       0.000000
     22 C18         72.2610    26.4570   111.5730 c3         1 MOL       0.000000
     23 C19         70.9280    27.0950   111.1770 c3         1 MOL       0.000000
     24 C20         71.0330    28.1930   110.0920 c3         1 MOL       0.000000
     25 C21         71.7350    30.4620   109.1330 c3         1 MOL       0.000000
     26 C22         70.7110    30.0360   108.0580 c3         1 MOL       0.000000
     27 C23         65.2520    28.8170   116.2640 c3         1 MOL       0.000000
     28 C24         66.3950    29.2770   117.2270 c3         1 MOL       0.000000
     29 C25         63.9640    29.5370   116.6620 cd         1 MOL       0.000000
     30 N3          63.0550    29.1030   117.6120 na         1 MOL       0.000000
     31 C26         62.0650    30.0270   117.6360 cd         1 MOL       0.000000
     32 C27         63.0200    27.9330   118.4770 c3         1 MOL       0.000000
     33 N4          62.2170    31.0380   116.8080 nc         1 MOL       0.000000
     34 C28         63.4020    30.7290   116.2010 cc         1 MOL       0.000000
     35 N5          65.0070    27.3870   116.4800 n4         1 MOL       0.000000
     36 H1          65.8810    26.8630   116.3310 hn         1 MOL       0.000000
     37 H2          64.6780    27.2370   117.4450 hn         1 MOL       0.000000
     38 H3          64.2910    27.0570   115.8180 hn         1 MOL       0.000000
     39 H4          66.8910    30.7520   115.1070 ha         1 MOL       0.000000
     40 H5          65.1370    27.7370   111.6660 ha         1 MOL       0.000000
     41 H6          64.5210    27.4040   114.0010 ha         1 MOL       0.000000
     42 H7          69.2870    30.2970   110.8650 ha         1 MOL       0.000000
     43 H8          72.9580    30.3160   112.9580 ha         1 MOL       0.000000
     44 H9          71.8360    31.3390   114.8790 ha         1 MOL       0.000000
     45 H10         69.4350    31.8420   114.8050 ha         1 MOL       0.000000
     46 H11         72.5820    28.0020   112.9970 h1         1 MOL       0.000000
     47 H12         73.8650    26.7880   112.9080 h1         1 MOL       0.000000
     48 H13         75.9130    28.7270   110.9010 h1         1 MOL       0.000000
     49 H14         75.6450    27.0480   111.3030 h1         1 MOL       0.000000
     50 H15         75.7320    28.2470   112.5710 h1         1 MOL       0.000000
     51 H16         72.7670    26.1510   110.6810 hc         1 MOL       0.000000
     52 H17         72.0350    25.6330   112.2160 hc         1 MOL       0.000000
     53 H18         70.2850    26.3230   110.8080 hc         1 MOL       0.000000
     54 H19         70.5500    27.5740   112.0560 hc         1 MOL       0.000000
     55 H20         71.4690    27.7380   109.2270 hc         1 MOL       0.000000
     56 H21         70.0290    28.5490   109.9910 hc         1 MOL       0.000000
     57 H22         71.4510    31.4330   109.4830 hc         1 MOL       0.000000
     58 H23         72.6860    30.4190   108.6440 hc         1 MOL       0.000000
     59 H24         69.7260    30.0540   108.4760 hc         1 MOL       0.000000
     60 H25         70.9370    29.0460   107.7220 hc         1 MOL       0.000000
     61 H26         70.7600    30.7130   107.2310 hc         1 MOL       0.000000
     62 H27         67.3060    28.7820   116.9620 hc         1 MOL       0.000000
     63 H28         66.1340    29.0290   118.2340 hc         1 MOL       0.000000
     64 H29         66.5270    30.3350   117.1430 hc         1 MOL       0.000000
     65 H30         61.2480    29.9440   118.2610 h5         1 MOL       0.000000
     66 H31         63.8900    27.3340   118.3030 h1         1 MOL       0.000000
     67 H32         62.1430    27.3580   118.2640 h1         1 MOL       0.000000
     68 H33         63.0020    28.2460   119.5000 h1         1 MOL       0.000000
     69 H34         63.8380    31.3180   115.4740 h4         1 MOL       0.000000
@<TRIPOS>BOND
     1     1     3 ar  
     2     2     4 ar  
     3     2     1 ar  
     4     3     6 ar  
     5     3    39 1   
     6     4     7 ar  
     7     4    40 1   
     8     5     2 1   
     9     6    27 1   
    10     7     6 ar  
    11     7    41 1   
    12     8     5 3   
    13     9    10 1   
    14     9     1 1   
    15    10    15 ar  
    16    11    10 ar  
    17    11    42 1   
    18    12    11 ar  
    19    12    13 ar  
    20    13    14 ar  
    21    13    43 1   
    22    14    44 1   
    23    15    14 ar  
    24    15    45 1   
    25    16    25 1   
    26    16    17 1   
    27    16    12 1   
    28    17    18 1   
    29    18    21 1   
    30    18    20 1   
    31    19    17 2   
    32    20    46 1   
    33    20    47 1   
    34    21    48 1   
    35    21    49 1   
    36    21    50 1   
    37    22    20 1   
    38    22    51 1   
    39    22    52 1   
    40    23    22 1   
    41    23    53 1   
    42    23    54 1   
    43    24    16 1   
    44    24    23 1   
    45    24    55 1   
    46    24    56 1   
    47    25    57 1   
    48    25    58 1   
    49    26    25 1   
    50    26    59 1   
    51    26    60 1   
    52    26    61 1   
    53    27    35 1   
    54    27    29 1   
    55    27    28 1   
    56    28    62 1   
    57    28    63 1   
    58    28    64 1   
    59    29    30 1   
    60    30    31 1   
    61    30    32 1   
    62    31    65 1   
    63    32    66 1   
    64    32    67 1   
    65    32    68 1   
    66    33    31 2   
    67    34    29 2   
    68    34    33 1   
    69    34    69 1   
    70    35    37 1   
    71    36    35 1   
    72    38    35 1   
@<TRIPOS>SUBSTRUCTURE
     1 MOL         1 TEMP              0 ****  ****    0 ROOT
