@<TRIPOS>MOLECULE
MOL
   69    72     1     0     0
SMALL
No Charge or Current Charge


@<TRIPOS>ATOM
      1 C1          67.0200    29.6680   112.6370 ca         1 MOL       0.000000
      2 C2          65.8860    29.0580   111.9990 ca         1 MOL       0.000000
      3 C3          67.0540    29.7740   114.0560 ca         1 MOL       0.000000
      4 C4          64.8150    28.5780   112.7920 ca         1 MOL       0.000000
      5 C5          65.8430    28.8360   110.5840 cg         1 MOL       0.000000
      6 C6          65.9850    29.2850   114.8730 ca         1 MOL       0.000000
      7 C7          64.8620    28.6860   114.2060 ca         1 MOL       0.000000
      8 N1          65.8680    28.6310   109.4490 n1         1 MOL       0.000000
      9 O1          68.1360    30.1680   111.9290 os         1 MOL       0.000000
     10 C8          69.2640    29.3030   111.8200 ca         1 MOL       0.000000
     11 C9          70.4990    29.6470   112.4580 ca         1 MOL       0.000000
     12 C10         71.6660    28.8440   112.4000 ca         1 MOL       0.000000
     13 C11         71.5540    27.6230   111.6410 ca         1 MOL       0.000000
     14 C12         70.3270    27.2590   110.9980 ca         1 MOL       0.000000
     15 C13         69.1820    28.0970   111.0870 ca         1 MOL       0.000000
     16 C14         73.0100    29.3300   113.1360 c3         1 MOL       0.000000
     17 C15         74.1720    28.2070   113.1910 c          1 MOL       0.000000
     18 N2          74.8270    27.7590   112.0040 n          1 MOL       0.000000
     19 O2          74.5030    27.7190   114.2930 o          1 MOL       0.000000
     20 C16         74.6120    28.2420   110.6340 c3         1 MOL       0.000000
     21 C17         75.8630    26.7280   112.1120 c3         1 MOL       0.000000
     22 C18         74.9360    29.7240   110.4850 c3         1 MOL       0.000000
     23 C19         73.7850    30.6470   110.8890 c3         1 MOL       0.000000
     24 C20         73.4820    30.6790   112.4050 c3         1 MOL       0.000000
     25 C21         72.7170    29.7100   114.6500 c3         1 MOL       0.000000
     26 C22         73.3480    31.0160   115.1790 c3         1 MOL       0.000000
     27 C23         66.0170    29.3940   116.4220 c3         1 MOL       0.000000
     28 C24         66.9480    30.5650   116.8770 c3         1 MOL       0.000000
     29 C25         64.6370    29.6010   117.0460 cc         1 MOL       0.000000
     30 N3          63.8130    28.6030   117.5340 na         1 MOL       0.000000
     31 C26         62.6940    29.2220   117.9790 cc         1 MOL       0.000000
     32 C27         63.9630    27.1580   117.6190 c3         1 MOL       0.000000
     33 N4          62.6840    30.5310   117.8480 nd         1 MOL       0.000000
     34 C28         63.8970    30.7650   117.2650 cd         1 MOL       0.000000
     35 N5          66.5370    28.1410   116.9790 n4         1 MOL       0.000000
     36 H1          65.8120    27.4120   116.9190 hn         1 MOL       0.000000
     37 H2          67.3660    27.8450   116.4440 hn         1 MOL       0.000000
     38 H3          66.7980    28.2850   117.9640 hn         1 MOL       0.000000
     39 H4          67.8710    30.2150   114.5080 ha         1 MOL       0.000000
     40 H5          63.9950    28.1470   112.3380 ha         1 MOL       0.000000
     41 H6          64.0740    28.3270   114.7670 ha         1 MOL       0.000000
     42 H7          70.5420    30.5300   112.9900 ha         1 MOL       0.000000
     43 H8          72.3730    27.0000   111.5600 ha         1 MOL       0.000000
     44 H9          70.2730    26.3780   110.4640 ha         1 MOL       0.000000
     45 H10         68.3010    27.8280   110.6220 ha         1 MOL       0.000000
     46 H11         75.2390    27.6840   109.9700 h1         1 MOL       0.000000
     47 H12         73.5770    28.1080   110.3990 h1         1 MOL       0.000000
     48 H13         76.2500    26.5080   111.1390 h1         1 MOL       0.000000
     49 H14         75.4410    25.8410   112.5370 h1         1 MOL       0.000000
     50 H15         76.6550    27.0820   112.7390 h1         1 MOL       0.000000
     51 H16         75.1800    29.9160   109.4610 hc         1 MOL       0.000000
     52 H17         75.7520    29.9340   111.1440 hc         1 MOL       0.000000
     53 H18         72.9020    30.3210   110.3800 hc         1 MOL       0.000000
     54 H19         74.0850    31.6380   110.6210 hc         1 MOL       0.000000
     55 H20         72.7080    31.4030   112.5540 hc         1 MOL       0.000000
     56 H21         74.4310    30.8920   112.8510 hc         1 MOL       0.000000
     57 H22         73.0770    28.9080   115.2600 hc         1 MOL       0.000000
     58 H23         71.6600    29.8730   114.6960 hc         1 MOL       0.000000
     59 H24         74.4140    30.9290   115.1630 hc         1 MOL       0.000000
     60 H25         73.0190    31.1900   116.1820 hc         1 MOL       0.000000
     61 H26         73.0470    31.8340   114.5580 hc         1 MOL       0.000000
     62 H27         67.9200    30.4350   116.4480 hc         1 MOL       0.000000
     63 H28         67.0260    30.5650   117.9440 hc         1 MOL       0.000000
     64 H29         66.5350    31.4970   116.5500 hc         1 MOL       0.000000
     65 H30         61.9040    28.7030   118.3920 h5         1 MOL       0.000000
     66 H31         64.9120    26.8740   117.2160 h1         1 MOL       0.000000
     67 H32         63.1820    26.6850   117.0610 h1         1 MOL       0.000000
     68 H33         63.9040    26.8530   118.6430 h1         1 MOL       0.000000
     69 H34         64.2330    31.7070   117.0120 h4         1 MOL       0.000000
@<TRIPOS>BOND
     1     1     3 ar  
     2     2     1 ar  
     3     2     4 ar  
     4     3     6 ar  
     5     3    39 1   
     6     4     7 ar  
     7     4    40 1   
     8     5     2 1   
     9     6    27 1   
    10     7     6 ar  
    11     7    41 1   
    12     8     5 3   
    13     9     1 1   
    14    10     9 1   
    15    10    11 ar  
    16    11    42 1   
    17    12    11 ar  
    18    12    16 1   
    19    13    12 ar  
    20    13    43 1   
    21    14    15 ar  
    22    14    13 ar  
    23    14    44 1   
    24    15    10 ar  
    25    15    45 1   
    26    16    17 1   
    27    16    25 1   
    28    17    19 2   
    29    18    21 1   
    30    18    17 1   
    31    20    18 1   
    32    20    46 1   
    33    20    47 1   
    34    21    48 1   
    35    21    49 1   
    36    21    50 1   
    37    22    20 1   
    38    22    23 1   
    39    22    51 1   
    40    22    52 1   
    41    23    24 1   
    42    23    53 1   
    43    23    54 1   
    44    24    16 1   
    45    24    55 1   
    46    24    56 1   
    47    25    26 1   
    48    25    57 1   
    49    25    58 1   
    50    26    59 1   
    51    26    60 1   
    52    26    61 1   
    53    27    28 1   
    54    27    35 1   
    55    27    29 1   
    56    28    62 1   
    57    28    63 1   
    58    28    64 1   
    59    29    34 2   
    60    29    30 1   
    61    30    32 1   
    62    30    31 1   
    63    31    65 1   
    64    32    66 1   
    65    32    67 1   
    66    32    68 1   
    67    33    31 2   
    68    34    33 1   
    69    34    69 1   
    70    35    38 1   
    71    36    35 1   
    72    37    35 1   
@<TRIPOS>SUBSTRUCTURE
     1 MOL         1 TEMP              0 ****  ****    0 ROOT
