@<TRIPOS>MOLECULE
MOL
   69    72     1     0     0
SMALL
No Charge or Current Charge


@<TRIPOS>ATOM
      1 C1          68.3130    31.6920   115.3340 ca         1 MOL       0.000000
      2 C2          68.7060    31.4880   116.7010 ca         1 MOL       0.000000
      3 C3          67.0380    31.2370   114.8940 ca         1 MOL       0.000000
      4 C4          67.8190    30.8300   117.5890 ca         1 MOL       0.000000
      5 C5          69.9330    32.0110   117.2230 cg         1 MOL       0.000000
      6 C6          66.1270    30.5790   115.7800 ca         1 MOL       0.000000
      7 C7          66.5490    30.3830   117.1390 ca         1 MOL       0.000000
      8 N1          70.9060    32.4910   117.6160 n1         1 MOL       0.000000
      9 O1          69.1270    32.3430   114.3800 os         1 MOL       0.000000
     10 C8          70.1410    31.5550   113.7600 ca         1 MOL       0.000000
     11 C9          69.7890    30.5640   112.7870 ca         1 MOL       0.000000
     12 C10         70.7320    29.7400   112.1250 ca         1 MOL       0.000000
     13 C11         72.1140    29.9470   112.4850 ca         1 MOL       0.000000
     14 C12         72.4870    30.9350   113.4520 ca         1 MOL       0.000000
     15 C13         71.5040    31.7390   114.0890 ca         1 MOL       0.000000
     16 C14         70.2310    28.6420   111.0630 c3         1 MOL       0.000000
     17 C15         68.6400    28.6800   110.7790 c          1 MOL       0.000000
     18 N2          68.0310    29.7900   110.1170 n          1 MOL       0.000000
     19 O2          67.9270    27.7220   111.1470 o          1 MOL       0.000000
     20 C16         68.7030    30.9780   109.5730 c3         1 MOL       0.000000
     21 C17         66.5820    29.7780   109.9000 c3         1 MOL       0.000000
     22 C18         69.7040    30.6260   108.4790 c3         1 MOL       0.000000
     23 C19         71.0770    30.2130   109.0140 c3         1 MOL       0.000000
     24 C20         71.1070    28.8440   109.7340 c3         1 MOL       0.000000
     25 C21         70.5310    27.1730   111.5880 c3         1 MOL       0.000000
     26 C22         71.9060    26.5680   111.2280 c3         1 MOL       0.000000
     27 C23         64.7340    30.0830   115.3070 c3         1 MOL       0.000000
     28 C24         64.8560    28.7200   114.5500 c3         1 MOL       0.000000
     29 C25         63.7280    29.9160   116.4470 cc         1 MOL       0.000000
     30 N3          63.6420    28.8250   117.2940 na         1 MOL       0.000000
     31 C26         62.6140    29.0840   118.1380 cc         1 MOL       0.000000
     32 C27         64.4050    27.5900   117.3880 c3         1 MOL       0.000000
     33 N4          62.0070    30.2360   117.9500 nd         1 MOL       0.000000
     34 C28         62.7040    30.7520   116.8940 cd         1 MOL       0.000000
     35 N5          64.1580    31.0750   114.3940 n4         1 MOL       0.000000
     36 H1          63.4160    30.6340   113.8310 hn         1 MOL       0.000000
     37 H2          63.7590    31.8530   114.9380 hn         1 MOL       0.000000
     38 H3          64.8930    31.4350   113.7700 hn         1 MOL       0.000000
     39 H4          66.7630    31.3860   113.9100 ha         1 MOL       0.000000
     40 H5          68.0980    30.6750   118.5700 ha         1 MOL       0.000000
     41 H6          65.9160    29.9080   117.8010 ha         1 MOL       0.000000
     42 H7          68.7910    30.4440   112.5550 ha         1 MOL       0.000000
     43 H8          72.8460    29.3730   112.0380 ha         1 MOL       0.000000
     44 H9          73.4830    31.0650   113.6890 ha         1 MOL       0.000000
     45 H10         71.7820    32.4500   114.7840 ha         1 MOL       0.000000
     46 H11         67.9640    31.6350   109.1650 h1         1 MOL       0.000000
     47 H12         69.2410    31.4440   110.3720 h1         1 MOL       0.000000
     48 H13         66.2890    30.6750   109.3960 h1         1 MOL       0.000000
     49 H14         66.0810    29.7190   110.8430 h1         1 MOL       0.000000
     50 H15         66.3180    28.9310   109.3020 h1         1 MOL       0.000000
     51 H16         69.3070    29.8150   107.9050 hc         1 MOL       0.000000
     52 H17         69.8490    31.5080   107.8910 hc         1 MOL       0.000000
     53 H18         71.4030    30.9610   109.7070 hc         1 MOL       0.000000
     54 H19         71.7170    30.1190   108.1620 hc         1 MOL       0.000000
     55 H20         72.1260    28.6510   109.9980 hc         1 MOL       0.000000
     56 H21         70.6600    28.1750   109.0290 hc         1 MOL       0.000000
     57 H22         69.7790    26.5270   111.1870 hc         1 MOL       0.000000
     58 H23         70.5330    27.2540   112.6550 hc         1 MOL       0.000000
     59 H24         71.9800    26.4560   110.1660 hc         1 MOL       0.000000
     60 H25         72.0080    25.6110   111.6960 hc         1 MOL       0.000000
     61 H26         72.6830    27.2180   111.5730 hc         1 MOL       0.000000
     62 H27         65.5570    28.8190   113.7480 hc         1 MOL       0.000000
     63 H28         63.9000    28.4440   114.1560 hc         1 MOL       0.000000
     64 H29         65.1940    27.9650   115.2280 hc         1 MOL       0.000000
     65 H30         62.3270    28.4230   118.8770 h5         1 MOL       0.000000
     66 H31         65.1660    27.5830   116.6360 h1         1 MOL       0.000000
     67 H32         63.7520    26.7550   117.2430 h1         1 MOL       0.000000
     68 H33         64.8590    27.5240   118.3550 h1         1 MOL       0.000000
     69 H34         62.4940    31.6690   116.4690 h4         1 MOL       0.000000
@<TRIPOS>BOND
     1     1     2 ar  
     2     2     5 1   
     3     2     4 ar  
     4     3     1 ar  
     5     3     6 ar  
     6     3    39 1   
     7     4    40 1   
     8     5     8 3   
     9     6     7 ar  
    10     7     4 ar  
    11     7    41 1   
    12     9     1 1   
    13    10    15 ar  
    14    10     9 1   
    15    11    10 ar  
    16    11    42 1   
    17    12    13 ar  
    18    12    11 ar  
    19    13    14 ar  
    20    13    43 1   
    21    14    15 ar  
    22    14    44 1   
    23    15    45 1   
    24    16    25 1   
    25    16    12 1   
    26    17    16 1   
    27    17    19 2   
    28    18    17 1   
    29    20    18 1   
    30    20    46 1   
    31    20    47 1   
    32    21    18 1   
    33    21    48 1   
    34    21    49 1   
    35    21    50 1   
    36    22    23 1   
    37    22    20 1   
    38    22    51 1   
    39    22    52 1   
    40    23    24 1   
    41    23    53 1   
    42    23    54 1   
    43    24    16 1   
    44    24    55 1   
    45    24    56 1   
    46    25    57 1   
    47    25    58 1   
    48    26    25 1   
    49    26    59 1   
    50    26    60 1   
    51    26    61 1   
    52    27    28 1   
    53    27     6 1   
    54    27    29 1   
    55    28    62 1   
    56    28    63 1   
    57    28    64 1   
    58    29    34 2   
    59    29    30 1   
    60    30    32 1   
    61    30    31 1   
    62    31    65 1   
    63    32    66 1   
    64    32    67 1   
    65    32    68 1   
    66    33    31 2   
    67    34    33 1   
    68    34    69 1   
    69    35    37 1   
    70    35    27 1   
    71    36    35 1   
    72    38    35 1   
@<TRIPOS>SUBSTRUCTURE
     1 MOL         1 TEMP              0 ****  ****    0 ROOT
