@<TRIPOS>MOLECULE
MOL
   57    60     1     0     0
SMALL
No Charge or Current Charge


@<TRIPOS>ATOM
      1 C1          13.3610    -5.0420    -1.4880 c2         1 MOL       0.000000
      2 C2          14.2690    -4.0750    -1.5370 ce         1 MOL       0.000000
      3 C3          13.9650    -2.7860    -0.8340 c          1 MOL       0.000000
      4 C4          12.6080    -2.6150    -0.2200 ce         1 MOL       0.000000
      5 C5          11.7450    -3.6280    -0.2150 c2         1 MOL       0.000000
      6 C6          10.4040    -3.3740     0.4070 c3         1 MOL       0.000000
      7 C7           9.3050    -3.7480    -0.5840 c3         1 MOL       0.000000
      8 C8           9.5180    -5.1130    -1.2320 c3         1 MOL       0.000000
      9 C9          10.9230    -5.3310    -1.7950 c3         1 MOL       0.000000
     10 C10         12.0280    -4.9860    -0.7950 c3         1 MOL       0.000000
     11 C11         11.1130    -6.6220    -2.5900 c3         1 MOL       0.000000
     12 C12          9.9440    -7.0320    -3.4800 c3         1 MOL       0.000000
     13 C13          8.5990    -6.9270    -2.7610 c3         1 MOL       0.000000
     14 C14          8.4390    -5.4990    -2.2400 c3         1 MOL       0.000000
     15 C15          6.9580    -5.3360    -1.9140 c3         1 MOL       0.000000
     16 C16          6.2640    -6.2320    -2.9350 c3         1 MOL       0.000000
     17 C17          7.3750    -6.9730    -3.6760 c3         1 MOL       0.000000
     18 C18          8.4960    -8.0010    -1.6800 c3         1 MOL       0.000000
     19 C19         12.1370    -5.9680     0.3690 c3         1 MOL       0.000000
     20 C20          5.2970    -5.4290    -3.7990 c3         1 MOL       0.000000
     21 F1          11.0330    -4.3920    -2.7780 f          1 MOL       0.000000
     22 O1          14.8100    -1.8970    -0.7650 o          1 MOL       0.000000
     23 C21          6.9730    -8.3750    -4.1050 c          1 MOL       0.000000
     24 O2           7.6300    -8.9790    -4.9500 o          1 MOL       0.000000
     25 C22          5.7560    -9.0880    -3.5400 c3         1 MOL       0.000000
     26 O3           4.6850    -9.0300    -4.4700 oh         1 MOL       0.000000
     27 H1           4.0640    -9.8390    -4.3290 ho         1 MOL       0.000000
     28 O4           7.6360    -6.2410    -4.8650 oh         1 MOL       0.000000
     29 H2           8.3360    -5.5110    -4.6720 ho         1 MOL       0.000000
     30 O5          11.3360    -7.7070    -1.7010 oh         1 MOL       0.000000
     31 H3          10.5710    -7.7500    -1.0120 ho         1 MOL       0.000000
     32 H4          13.5940    -5.9220    -1.9750 ha         1 MOL       0.000000
     33 H5          15.1580    -4.2070    -2.0440 ha         1 MOL       0.000000
     34 H6          12.3430    -1.7100     0.2000 ha         1 MOL       0.000000
     35 H7          10.3030    -3.9670     1.2920 hc         1 MOL       0.000000
     36 H8          10.3190    -2.3380     0.6600 hc         1 MOL       0.000000
     37 H9           8.3690    -3.7600    -0.0650 hc         1 MOL       0.000000
     38 H10          9.3220    -3.0190    -1.3670 hc         1 MOL       0.000000
     39 H11          9.4200    -5.7920    -0.4110 hc         1 MOL       0.000000
     40 H12         11.9450    -6.4090    -3.2280 h1         1 MOL       0.000000
     41 H13          9.9250    -6.3940    -4.3380 hc         1 MOL       0.000000
     42 H14         10.0870    -8.0560    -3.7560 hc         1 MOL       0.000000
     43 H15          8.6520    -4.7310    -2.9530 hc         1 MOL       0.000000
     44 H16          6.7490    -5.6610    -0.9160 hc         1 MOL       0.000000
     45 H17          6.6310    -4.3180    -1.9640 hc         1 MOL       0.000000
     46 H18          5.6250    -6.9650    -2.4890 hc         1 MOL       0.000000
     47 H19          8.6180    -8.9670    -2.1240 hc         1 MOL       0.000000
     48 H20          7.5360    -7.9430    -1.2100 hc         1 MOL       0.000000
     49 H21          9.2610    -7.8450    -0.9490 hc         1 MOL       0.000000
     50 H22         12.3390    -6.9480    -0.0090 hc         1 MOL       0.000000
     51 H23         11.2160    -5.9790     0.9140 hc         1 MOL       0.000000
     52 H24         12.9320    -5.6650     1.0180 hc         1 MOL       0.000000
     53 H25          5.8310    -4.6520    -4.3040 hc         1 MOL       0.000000
     54 H26          4.5400    -4.9970    -3.1790 hc         1 MOL       0.000000
     55 H27          4.8420    -6.0750    -4.5200 hc         1 MOL       0.000000
     56 H28          6.0030   -10.1110    -3.3470 h1         1 MOL       0.000000
     57 H29          5.4580    -8.6090    -2.6310 h1         1 MOL       0.000000
@<TRIPOS>BOND
     1     1    10 1   
     2     1    32 1   
     3     2     1 2   
     4     2     3 1   
     5     2    33 1   
     6     3    22 2   
     7     3     4 1   
     8     4     5 2   
     9     4    34 1   
    10     5     6 1   
    11     6    35 1   
    12     6    36 1   
    13     7     6 1   
    14     7    37 1   
    15     7    38 1   
    16     8    14 1   
    17     8     7 1   
    18     8    39 1   
    19     9    11 1   
    20     9     8 1   
    21    10     9 1   
    22    10     5 1   
    23    10    19 1   
    24    11    30 1   
    25    11    40 1   
    26    12    13 1   
    27    12    11 1   
    28    12    41 1   
    29    12    42 1   
    30    13    17 1   
    31    13    18 1   
    32    14    13 1   
    33    14    15 1   
    34    14    43 1   
    35    15    44 1   
    36    15    45 1   
    37    16    17 1   
    38    16    15 1   
    39    16    46 1   
    40    17    28 1   
    41    18    47 1   
    42    18    48 1   
    43    18    49 1   
    44    19    50 1   
    45    19    51 1   
    46    19    52 1   
    47    20    16 1   
    48    20    53 1   
    49    20    54 1   
    50    20    55 1   
    51    21     9 1   
    52    23    17 1   
    53    23    25 1   
    54    24    23 2   
    55    25    56 1   
    56    25    57 1   
    57    26    27 1   
    58    26    25 1   
    59    28    29 1   
    60    30    31 1   
@<TRIPOS>SUBSTRUCTURE
     1 MOL         1 TEMP              0 ****  ****    0 ROOT
