@<TRIPOS>MOLECULE
MOL
   57    60     1     0     0
SMALL
No Charge or Current Charge


@<TRIPOS>ATOM
      1 C1           7.4790    -6.1950    -2.8420 c2         1 MOL       0.000000
      2 C2           7.1210    -6.5430    -4.0730 ce         1 MOL       0.000000
      3 C3           8.0820    -7.3590    -4.8830 c          1 MOL       0.000000
      4 C4           9.4400    -7.6340    -4.3080 ce         1 MOL       0.000000
      5 C5           9.7310    -7.2470    -3.0690 c2         1 MOL       0.000000
      6 C6          11.1130    -7.5480    -2.5710 c3         1 MOL       0.000000
      7 C7          11.7590    -6.2650    -2.0560 c3         1 MOL       0.000000
      8 C8          10.8500    -5.4650    -1.1280 c3         1 MOL       0.000000
      9 C9           9.4370    -5.2420    -1.6670 c3         1 MOL       0.000000
     10 C10          8.7740    -6.5310    -2.1570 c3         1 MOL       0.000000
     11 C11          8.5610    -4.3090    -0.8330 c3         1 MOL       0.000000
     12 C12          9.2660    -3.0980    -0.2300 c3         1 MOL       0.000000
     13 C13         10.5970    -3.4640     0.4240 c3         1 MOL       0.000000
     14 C14         11.4700    -4.1680    -0.6150 c3         1 MOL       0.000000
     15 C15         12.8900    -4.1360    -0.0590 c3         1 MOL       0.000000
     16 C16         12.9370    -2.8340     0.7360 c3         1 MOL       0.000000
     17 C17         11.5140    -2.2790     0.7250 c3         1 MOL       0.000000
     18 C18         10.3520    -4.2820     1.6900 c3         1 MOL       0.000000
     19 C19          8.3970    -7.4960    -1.0360 c3         1 MOL       0.000000
     20 C20         14.0260    -1.9080     0.2040 c3         1 MOL       0.000000
     21 F1           9.6270    -4.4960    -2.7930 f          1 MOL       0.000000
     22 O1           7.7610    -7.7900    -5.9870 o          1 MOL       0.000000
     23 C21         11.1580    -1.5270     1.9980 c          1 MOL       0.000000
     24 O2          11.8930    -1.5860     2.9820 o          1 MOL       0.000000
     25 C22          9.8950    -0.6930     2.1310 c3         1 MOL       0.000000
     26 O3           9.8610     0.3010     1.1170 oh         1 MOL       0.000000
     27 H1          10.8240     0.5800     0.8770 ho         1 MOL       0.000000
     28 O4          11.4480    -1.3380    -0.3370 oh         1 MOL       0.000000
     29 H2          10.8970    -1.7340    -1.1130 ho         1 MOL       0.000000
     30 O5           7.9970    -5.0240     0.2570 oh         1 MOL       0.000000
     31 H3           7.3980    -4.3940     0.8100 ho         1 MOL       0.000000
     32 H4           6.7990    -5.6380    -2.3010 ha         1 MOL       0.000000
     33 H5           6.2070    -6.2600    -4.4600 ha         1 MOL       0.000000
     34 H6          10.1500    -8.1240    -4.8750 ha         1 MOL       0.000000
     35 H7          11.7010    -7.9470    -3.3710 hc         1 MOL       0.000000
     36 H8          11.0580    -8.2630    -1.7770 hc         1 MOL       0.000000
     37 H9          12.0130    -5.6520    -2.8950 hc         1 MOL       0.000000
     38 H10         12.6210    -6.5480    -1.4900 hc         1 MOL       0.000000
     39 H11         10.7440    -6.1060    -0.2780 hc         1 MOL       0.000000
     40 H12          7.8370    -3.9460    -1.5320 h1         1 MOL       0.000000
     41 H13          8.6280    -2.6620     0.5100 hc         1 MOL       0.000000
     42 H14          9.4710    -2.4110    -1.0240 hc         1 MOL       0.000000
     43 H15         11.5320    -3.6750    -1.5630 hc         1 MOL       0.000000
     44 H16         13.6100    -4.1260    -0.8510 hc         1 MOL       0.000000
     45 H17         13.1220    -4.9940     0.5360 hc         1 MOL       0.000000
     46 H18         13.2260    -2.9710     1.7570 hc         1 MOL       0.000000
     47 H19          9.7090    -5.1070     1.4630 hc         1 MOL       0.000000
     48 H20          9.8900    -3.6630     2.4310 hc         1 MOL       0.000000
     49 H21         11.2850    -4.6490     2.0630 hc         1 MOL       0.000000
     50 H22          7.9410    -8.3690    -1.4550 hc         1 MOL       0.000000
     51 H23          7.7080    -7.0180    -0.3710 hc         1 MOL       0.000000
     52 H24          9.2770    -7.7770    -0.4970 hc         1 MOL       0.000000
     53 H25         13.8410    -1.6960    -0.8280 hc         1 MOL       0.000000
     54 H26         14.9790    -2.3840     0.3050 hc         1 MOL       0.000000
     55 H27         14.0220    -0.9950     0.7620 hc         1 MOL       0.000000
     56 H28          9.0390    -1.3280     2.0340 h1         1 MOL       0.000000
     57 H29          9.8870    -0.2180     3.0900 h1         1 MOL       0.000000
@<TRIPOS>BOND
     1     1    10 1   
     2     1    32 1   
     3     2     1 2   
     4     2    33 1   
     5     3     4 1   
     6     3     2 1   
     7     4     5 2   
     8     4    34 1   
     9     5     6 1   
    10     5    10 1   
    11     6     7 1   
    12     6    35 1   
    13     6    36 1   
    14     7     8 1   
    15     7    37 1   
    16     7    38 1   
    17     8     9 1   
    18     8    39 1   
    19     9    10 1   
    20    10    19 1   
    21    11     9 1   
    22    11    12 1   
    23    11    30 1   
    24    11    40 1   
    25    12    13 1   
    26    12    41 1   
    27    12    42 1   
    28    13    14 1   
    29    13    18 1   
    30    14     8 1   
    31    14    15 1   
    32    14    43 1   
    33    15    16 1   
    34    15    44 1   
    35    15    45 1   
    36    16    17 1   
    37    16    46 1   
    38    17    13 1   
    39    17    23 1   
    40    18    47 1   
    41    18    48 1   
    42    18    49 1   
    43    19    50 1   
    44    19    51 1   
    45    19    52 1   
    46    20    16 1   
    47    20    53 1   
    48    20    54 1   
    49    20    55 1   
    50    21     9 1   
    51    22     3 2   
    52    23    25 1   
    53    23    24 2   
    54    25    56 1   
    55    25    57 1   
    56    26    25 1   
    57    27    26 1   
    58    28    17 1   
    59    29    28 1   
    60    30    31 1   
@<TRIPOS>SUBSTRUCTURE
     1 MOL         1 TEMP              0 ****  ****    0 ROOT
