@<TRIPOS>MOLECULE
MOL
   43    44     1     0     0
SMALL
No Charge or Current Charge


@<TRIPOS>ATOM
      1 C1           1.3460    65.8080    69.4200 ca         1 MOL       0.000000
      2 C2           2.4070    64.9070    69.3690 ca         1 MOL       0.000000
      3 C3           0.2410    65.4980    70.2060 ca         1 MOL       0.000000
      4 C4           0.2190    64.3100    70.9290 ca         1 MOL       0.000000
      5 C5           1.2880    63.4210    70.8690 ca         1 MOL       0.000000
      6 C6           1.1750    62.2440    71.6760 cg         1 MOL       0.000000
      7 N1           1.0680    61.3100    72.3170 n1         1 MOL       0.000000
      8 C7           2.4050    63.7020    70.0750 ca         1 MOL       0.000000
      9 C8           3.6110    62.7520    69.9330 c3         1 MOL       0.000000
     10 F1           4.6240    63.4030    69.3680 f          1 MOL       0.000000
     11 F2           4.0510    62.2460    71.0810 f          1 MOL       0.000000
     12 F3           3.3310    61.6970    69.1710 f          1 MOL       0.000000
     13 N2           1.2810    66.9080    68.6690 n          1 MOL       0.000000
     14 C9           0.3170    67.2100    67.8030 c          1 MOL       0.000000
     15 O1          -0.5980    66.4560    67.4720 o          1 MOL       0.000000
     16 H1           2.0490    67.5870    68.7690 hn         1 MOL       0.000000
     17 C10          0.4980    68.5660    67.1160 c3         1 MOL       0.000000
     18 C11         -0.5680    68.7160    66.0290 c3         1 MOL       0.000000
     19 C12          1.8980    68.6660    66.5040 c3         1 MOL       0.000000
     20 S1           2.2970    67.3630    65.2820 sy         1 MOL       0.000000
     21 O2           1.0550    66.9430    64.5520 o          1 MOL       0.000000
     22 O3           2.8920    66.1820    65.9880 o          1 MOL       0.000000
     23 C13          3.4480    67.9950    64.1270 ca         1 MOL       0.000000
     24 C14          4.5640    68.7040    64.5650 ca         1 MOL       0.000000
     25 C15          5.4870    69.1880    63.6420 ca         1 MOL       0.000000
     26 C16          5.2930    68.9590    62.2830 ca         1 MOL       0.000000
     27 F4           6.1830    69.4230    61.3830 f          1 MOL       0.000000
     28 C17          4.1790    68.2500    61.8460 ca         1 MOL       0.000000
     29 C18          3.2550    67.7680    62.7690 ca         1 MOL       0.000000
     30 O4           0.3380    69.5960    68.0950 oh         1 MOL       0.000000
     31 H2          -0.2530    69.2510    68.8640 ho         1 MOL       0.000000
     32 H3           3.2270    65.1390    68.7870 ha         1 MOL       0.000000
     33 H4          -0.5600    66.1470    70.2520 ha         1 MOL       0.000000
     34 H5          -0.5990    64.0850    71.5160 ha         1 MOL       0.000000
     35 H6          -0.4440    67.9440    65.2990 hc         1 MOL       0.000000
     36 H7          -0.4650    69.6710    65.5580 hc         1 MOL       0.000000
     37 H8          -1.5400    68.6380    66.4690 hc         1 MOL       0.000000
     38 H9           1.9820    69.6150    66.0170 h1         1 MOL       0.000000
     39 H10          2.5890    68.5430    67.3120 h1         1 MOL       0.000000
     40 H11          4.7070    68.8710    65.5730 ha         1 MOL       0.000000
     41 H12          6.3130    69.7150    63.9650 ha         1 MOL       0.000000
     42 H13          4.0370    68.0810    60.8380 ha         1 MOL       0.000000
     43 H14          2.4280    67.2430    62.4460 ha         1 MOL       0.000000
@<TRIPOS>BOND
     1     1     3 ar  
     2     2     1 ar  
     3     2     8 ar  
     4     2    32 1   
     5     3     4 ar  
     6     3    33 1   
     7     4    34 1   
     8     5     4 ar  
     9     5     6 1   
    10     6     7 3   
    11     8     5 ar  
    12     9     8 1   
    13     9    11 1   
    14    10     9 1   
    15    12     9 1   
    16    13    16 1   
    17    13     1 1   
    18    14    13 1   
    19    15    14 2   
    20    17    14 1   
    21    17    30 1   
    22    18    17 1   
    23    18    35 1   
    24    18    36 1   
    25    18    37 1   
    26    19    17 1   
    27    19    38 1   
    28    19    39 1   
    29    20    22 2   
    30    20    19 1   
    31    21    20 2   
    32    23    24 ar  
    33    23    20 1   
    34    24    40 1   
    35    25    24 ar  
    36    25    41 1   
    37    26    25 ar  
    38    27    26 1   
    39    28    26 ar  
    40    28    29 ar  
    41    28    42 1   
    42    29    23 ar  
    43    29    43 1   
    44    30    31 1   
@<TRIPOS>SUBSTRUCTURE
     1 MOL         1 TEMP              0 ****  ****    0 ROOT
