@<TRIPOS>MOLECULE
MOL
   43    44     1     0     0
SMALL
No Charge or Current Charge


@<TRIPOS>ATOM
      1 C1           1.0750    66.0090    69.0820 ca         1 MOL       0.000000
      2 C2           2.1880    65.1840    68.9310 ca         1 MOL       0.000000
      3 C3           0.1370    65.6960    70.0600 ca         1 MOL       0.000000
      4 C4           0.3300    64.5820    70.8700 ca         1 MOL       0.000000
      5 C5           1.4480    63.7680    70.7080 ca         1 MOL       0.000000
      6 C6           1.5620    62.6660    71.6130 cg         1 MOL       0.000000
      7 N1           1.6360    61.7900    72.3360 n1         1 MOL       0.000000
      8 C7           2.3980    64.0520    69.7210 ca         1 MOL       0.000000
      9 C8           3.6430    63.1820    69.4610 c3         1 MOL       0.000000
     10 F1           3.2840    61.9030    69.3950 f          1 MOL       0.000000
     11 F2           4.2930    63.4730    68.3370 f          1 MOL       0.000000
     12 F3           4.5490    63.3000    70.4280 f          1 MOL       0.000000
     13 N2           0.8000    67.0270    68.2660 n          1 MOL       0.000000
     14 C9          -0.2730    67.1400    67.4870 c          1 MOL       0.000000
     15 O1          -1.1130    66.2580    67.3090 o          1 MOL       0.000000
     16 H1           1.4830    67.7980    68.2360 hn         1 MOL       0.000000
     17 C10         -0.3310    68.4460    66.6900 c3         1 MOL       0.000000
     18 C11         -1.2070    68.2330    65.4550 c3         1 MOL       0.000000
     19 C12          1.0790    68.8740    66.2730 c3         1 MOL       0.000000
     20 S1           1.8340    67.8520    64.9560 sy         1 MOL       0.000000
     21 O2           1.4570    68.3900    63.6070 o          1 MOL       0.000000
     22 O3           1.3580    66.4370    65.0870 o          1 MOL       0.000000
     23 C13          3.5740    67.9010    65.1210 ca         1 MOL       0.000000
     24 C14          4.2140    69.0900    65.4640 ca         1 MOL       0.000000
     25 C15          5.5970    69.1170    65.6140 ca         1 MOL       0.000000
     26 C16          6.3390    67.9550    65.4220 ca         1 MOL       0.000000
     27 F4           7.6790    67.9740    65.5650 f          1 MOL       0.000000
     28 C17          5.6990    66.7680    65.0790 ca         1 MOL       0.000000
     29 C18          4.3170    66.7410    64.9280 ca         1 MOL       0.000000
     30 O4          -0.9030    69.4600    67.5210 oh         1 MOL       0.000000
     31 H2          -0.8490    70.3690    67.0400 ho         1 MOL       0.000000
     32 H3           2.8850    65.4190    68.2070 ha         1 MOL       0.000000
     33 H4          -0.6990    66.2880    70.1840 ha         1 MOL       0.000000
     34 H5          -0.3640    64.3560    71.6000 ha         1 MOL       0.000000
     35 H6          -0.7740    67.4740    64.8380 hc         1 MOL       0.000000
     36 H7          -1.2730    69.1470    64.9030 hc         1 MOL       0.000000
     37 H8          -2.1860    67.9290    65.7600 hc         1 MOL       0.000000
     38 H9           1.0300    69.8840    65.9240 h1         1 MOL       0.000000
     39 H10          1.6980    68.7550    67.1380 h1         1 MOL       0.000000
     40 H11          3.6620    69.9510    65.6070 ha         1 MOL       0.000000
     41 H12          6.0720    69.9970    65.8670 ha         1 MOL       0.000000
     42 H13          6.2500    65.9070    64.9370 ha         1 MOL       0.000000
     43 H14          3.8430    65.8610    64.6730 ha         1 MOL       0.000000
@<TRIPOS>BOND
     1     1     3 ar  
     2     2     1 ar  
     3     2     8 ar  
     4     2    32 1   
     5     3     4 ar  
     6     3    33 1   
     7     4    34 1   
     8     5     4 ar  
     9     5     6 1   
    10     6     7 3   
    11     8     5 ar  
    12     9     8 1   
    13     9    12 1   
    14    10     9 1   
    15    11     9 1   
    16    13     1 1   
    17    14    13 1   
    18    15    14 2   
    19    16    13 1   
    20    17    14 1   
    21    17    30 1   
    22    18    17 1   
    23    18    35 1   
    24    18    36 1   
    25    18    37 1   
    26    19    17 1   
    27    19    38 1   
    28    19    39 1   
    29    20    22 2   
    30    20    23 1   
    31    20    19 1   
    32    21    20 2   
    33    23    24 ar  
    34    24    25 ar  
    35    24    40 1   
    36    25    41 1   
    37    26    27 1   
    38    26    25 ar  
    39    28    26 ar  
    40    28    42 1   
    41    29    28 ar  
    42    29    23 ar  
    43    29    43 1   
    44    31    30 1   
@<TRIPOS>SUBSTRUCTURE
     1 MOL         1 TEMP              0 ****  ****    0 ROOT
