@<TRIPOS>MOLECULE
MOL
   34    36     1     0     0
SMALL
No Charge or Current Charge


@<TRIPOS>ATOM
      1 N1          29.6190    55.0460    24.9870 na         1 MOL       0.000000
      2 C1          28.5370    55.8270    25.3170 ca         1 MOL       0.000000
      3 C2          27.4930    56.4350    24.6170 ca         1 MOL       0.000000
      4 C3          28.5470    55.9960    26.7880 cp         1 MOL       0.000000
      5 C4          27.5910    56.7270    27.4790 ca         1 MOL       0.000000
      6 C5          26.5660    57.3080    26.7200 ca         1 MOL       0.000000
      7 C6          26.5250    57.1690    25.3230 ca         1 MOL       0.000000
      8 C7          29.7120    55.2810    27.2720 cp         1 MOL       0.000000
      9 C8          30.3610    54.6940    26.0830 ca         1 MOL       0.000000
     10 C9          31.5190    53.9370    26.2950 ca         1 MOL       0.000000
     11 C10         30.1970    55.1230    28.5710 ca         1 MOL       0.000000
     12 C11         31.3650    54.3640    28.7120 ca         1 MOL       0.000000
     13 C12         31.9990    53.7900    27.6010 ca         1 MOL       0.000000
     14 C13         29.9900    54.6740    23.6130 c3         1 MOL       0.000000
     15 C14         29.2700    53.4070    23.1140 c3         1 MOL       0.000000
     16 C15         30.1840    52.1680    23.0610 c3         1 MOL       0.000000
     17 C16         30.4070    51.6810    21.6460 c          1 MOL       0.000000
     18 O1          30.2390    50.5070    21.3460 oh         1 MOL       0.000000
     19 O2          30.7870    52.5240    20.6900 o          1 MOL       0.000000
     20 H1          27.4330    56.3460    23.5910 ha         1 MOL       0.000000
     21 H2          27.6330    56.8380    28.5040 ha         1 MOL       0.000000
     22 H3          25.8270    57.8480    27.1970 ha         1 MOL       0.000000
     23 H4          25.7590    57.6200    24.7980 ha         1 MOL       0.000000
     24 H5          32.0100    53.4950    25.5020 ha         1 MOL       0.000000
     25 H6          29.7200    55.5430    29.3840 ha         1 MOL       0.000000
     26 H7          31.7670    54.2240    29.6520 ha         1 MOL       0.000000
     27 H8          32.8560    53.2360    27.7530 ha         1 MOL       0.000000
     28 H9          29.7410    55.4860    22.9620 h1         1 MOL       0.000000
     29 H10         31.0400    54.4660    23.6110 h1         1 MOL       0.000000
     30 H11         28.4530    53.1990    23.7730 hc         1 MOL       0.000000
     31 H12         28.9420    53.6020    22.1140 hc         1 MOL       0.000000
     32 H13         31.1310    52.4200    23.4920 hc         1 MOL       0.000000
     33 H14         29.7040    51.3830    23.6060 hc         1 MOL       0.000000
     34 H15         29.9710    49.8900    21.9990 ho         1 MOL       0.000000
@<TRIPOS>BOND
     1     1     2 1   
     2     1     9 1   
     3     2     4 ar  
     4     3     2 ar  
     5     3     7 ar  
     6     3    20 1   
     7     4     8 1   
     8     4     5 ar  
     9     5    21 1   
    10     6     5 ar  
    11     6    22 1   
    12     7     6 ar  
    13     7    23 1   
    14     8    11 ar  
    15     9    10 ar  
    16     9     8 ar  
    17    10    13 ar  
    18    10    24 1   
    19    11    12 ar  
    20    11    25 1   
    21    12    26 1   
    22    13    12 ar  
    23    13    27 1   
    24    14     1 1   
    25    14    28 1   
    26    14    29 1   
    27    15    14 1   
    28    15    30 1   
    29    15    31 1   
    30    16    15 1   
    31    16    32 1   
    32    16    33 1   
    33    17    16 1   
    34    18    17 1   
    35    18    34 1   
    36    19    17 2   
@<TRIPOS>SUBSTRUCTURE
     1 MOL         1 TEMP              0 ****  ****    0 ROOT
