@<TRIPOS>MOLECULE
MOL
   34    36     1     0     0
SMALL
No Charge or Current Charge


@<TRIPOS>ATOM
      1 N1          29.7410    55.0810    24.9810 na         1 MOL       0.000000
      2 C1          30.4720    54.6880    26.0770 ca         1 MOL       0.000000
      3 C2          31.6280    53.9340    26.2880 ca         1 MOL       0.000000
      4 C3          29.8170    55.2630    27.2740 cp         1 MOL       0.000000
      5 C4          30.2870    55.0760    28.5660 ca         1 MOL       0.000000
      6 C5          31.4550    54.3140    28.7120 ca         1 MOL       0.000000
      7 C6          32.1020    53.7530    27.5990 ca         1 MOL       0.000000
      8 C7          28.6570    55.9890    26.7940 cp         1 MOL       0.000000
      9 C8          28.6550    55.8420    25.3250 ca         1 MOL       0.000000
     10 C9          27.6240    56.4720    24.6200 ca         1 MOL       0.000000
     11 C10         27.6910    56.7100    27.4960 ca         1 MOL       0.000000
     12 C11         26.6800    57.3070    26.7330 ca         1 MOL       0.000000
     13 C12         26.6560    57.1880    25.3360 ca         1 MOL       0.000000
     14 C13         30.0390    54.6880    23.5960 c3         1 MOL       0.000000
     15 C14         29.5720    53.2600    23.2570 c3         1 MOL       0.000000
     16 C15         30.7350    52.2670    23.0690 c3         1 MOL       0.000000
     17 C16         30.8070    51.7300    21.6560 c          1 MOL       0.000000
     18 O1          31.2620    52.4060    20.7450 o          1 MOL       0.000000
     19 O2          30.3800    50.5030    21.3740 oh         1 MOL       0.000000
     20 H1          32.1290    53.5140    25.4900 ha         1 MOL       0.000000
     21 H2          29.8000    55.4790    29.3820 ha         1 MOL       0.000000
     22 H3          31.8460    54.1630    29.6550 ha         1 MOL       0.000000
     23 H4          32.9530    53.1890    27.7480 ha         1 MOL       0.000000
     24 H5          27.5770    56.4100    23.5910 ha         1 MOL       0.000000
     25 H6          27.7200    56.7990    28.5240 ha         1 MOL       0.000000
     26 H7          25.9380    57.8450    27.2080 ha         1 MOL       0.000000
     27 H8          25.8930    57.6470    24.8140 ha         1 MOL       0.000000
     28 H9          29.5490    55.3720    22.9350 h1         1 MOL       0.000000
     29 H10         31.1020    54.7110    23.4810 h1         1 MOL       0.000000
     30 H11         28.9500    52.9080    24.0530 hc         1 MOL       0.000000
     31 H12         29.0460    53.3110    22.3270 hc         1 MOL       0.000000
     32 H13         31.6540    52.7660    23.2950 hc         1 MOL       0.000000
     33 H14         30.5690    51.4390    23.7260 hc         1 MOL       0.000000
     34 H15         30.0260    49.9620    22.0530 ho         1 MOL       0.000000
@<TRIPOS>BOND
     1     1     9 1   
     2     1     2 1   
     3     2     3 ar  
     4     2     4 ar  
     5     3     7 ar  
     6     3    20 1   
     7     4     5 ar  
     8     5     6 ar  
     9     5    21 1   
    10     6    22 1   
    11     7     6 ar  
    12     7    23 1   
    13     8     4 1   
    14     8    11 ar  
    15     9     8 ar  
    16    10     9 ar  
    17    10    13 ar  
    18    10    24 1   
    19    11    25 1   
    20    12    11 ar  
    21    12    26 1   
    22    13    12 ar  
    23    13    27 1   
    24    14     1 1   
    25    14    28 1   
    26    14    29 1   
    27    15    14 1   
    28    15    30 1   
    29    15    31 1   
    30    16    15 1   
    31    16    32 1   
    32    16    33 1   
    33    17    16 1   
    34    18    17 2   
    35    19    17 1   
    36    19    34 1   
@<TRIPOS>SUBSTRUCTURE
     1 MOL         1 TEMP              0 ****  ****    0 ROOT
