@<TRIPOS>MOLECULE
MOL
   34    36     1     0     0
SMALL
No Charge or Current Charge


@<TRIPOS>ATOM
      1 N1          29.5690    53.7050    23.5320 na         1 MOL       0.000000
      2 C1          30.8830    53.9760    23.8320 ca         1 MOL       0.000000
      3 C2          31.5590    54.6130    24.8750 ca         1 MOL       0.000000
      4 C3          31.7110    53.4030    22.7470 cp         1 MOL       0.000000
      5 C4          33.0970    53.4830    22.7190 ca         1 MOL       0.000000
      6 C5          33.7160    54.1300    23.7980 ca         1 MOL       0.000000
      7 C6          32.9620    54.6860    24.8440 ca         1 MOL       0.000000
      8 C7          30.7870    52.8070    21.8010 cp         1 MOL       0.000000
      9 C8          29.4350    53.0270    22.3500 ca         1 MOL       0.000000
     10 C9          28.3560    52.5270    21.6120 ca         1 MOL       0.000000
     11 C10         31.0310    52.1410    20.5990 ca         1 MOL       0.000000
     12 C11         29.9090    51.6750    19.9050 ca         1 MOL       0.000000
     13 C12         28.6130    51.8660    20.4050 ca         1 MOL       0.000000
     14 C13         28.4220    54.1390    24.3450 c3         1 MOL       0.000000
     15 C14         28.6880    55.4420    25.1200 c3         1 MOL       0.000000
     16 C15         28.7550    55.2390    26.6470 c3         1 MOL       0.000000
     17 C16         28.2920    56.4630    27.4080 c          1 MOL       0.000000
     18 O1          28.7110    56.7050    28.5310 oh         1 MOL       0.000000
     19 O2          27.4210    57.3080    26.8670 o          1 MOL       0.000000
     20 H1          31.0330    55.0260    25.6610 ha         1 MOL       0.000000
     21 H2          33.6460    53.0850    21.9410 ha         1 MOL       0.000000
     22 H3          34.7450    54.1990    23.8240 ha         1 MOL       0.000000
     23 H4          33.4540    55.1640    25.6150 ha         1 MOL       0.000000
     24 H5          27.3880    52.6440    21.9510 ha         1 MOL       0.000000
     25 H6          31.9880    52.0000    20.2410 ha         1 MOL       0.000000
     26 H7          30.0380    51.1810    19.0080 ha         1 MOL       0.000000
     27 H8          27.8150    51.5040    19.8600 ha         1 MOL       0.000000
     28 H9          28.1910    53.3660    25.0480 h1         1 MOL       0.000000
     29 H10         27.6100    54.3270    23.6750 h1         1 MOL       0.000000
     30 H11         27.9000    56.1330    24.9030 hc         1 MOL       0.000000
     31 H12         29.6430    55.8090    24.8060 hc         1 MOL       0.000000
     32 H13         29.7670    55.0250    26.9220 hc         1 MOL       0.000000
     33 H14         28.1030    54.4290    26.8990 hc         1 MOL       0.000000
     34 H15         29.3260    56.1260    28.9360 ho         1 MOL       0.000000
@<TRIPOS>BOND
     1     1     2 1   
     2     1    14 1   
     3     2     3 ar  
     4     3    20 1   
     5     4     2 ar  
     6     5     4 ar  
     7     5     6 ar  
     8     5    21 1   
     9     6     7 ar  
    10     6    22 1   
    11     7     3 ar  
    12     7    23 1   
    13     8     9 ar  
    14     8     4 1   
    15     9     1 1   
    16    10     9 ar  
    17    10    24 1   
    18    11     8 ar  
    19    11    25 1   
    20    12    13 ar  
    21    12    11 ar  
    22    12    26 1   
    23    13    10 ar  
    24    13    27 1   
    25    14    15 1   
    26    14    28 1   
    27    14    29 1   
    28    15    16 1   
    29    15    30 1   
    30    15    31 1   
    31    16    17 1   
    32    16    32 1   
    33    16    33 1   
    34    17    18 1   
    35    18    34 1   
    36    19    17 2   
@<TRIPOS>SUBSTRUCTURE
     1 MOL         1 TEMP              0 ****  ****    0 ROOT
