@<TRIPOS>MOLECULE
MOL
   67    69     1     0     0
SMALL
No Charge or Current Charge


@<TRIPOS>ATOM
      1 C1          19.1010    19.7330    15.4640 c3         1 MOL       0.000000
      2 N1          17.8420    20.3230    14.9880 nh         1 MOL       0.000000
      3 H1          17.0830    19.7160    14.6490 hn         1 MOL       0.000000
      4 C2          17.6770    21.7610    15.0000 cc         1 MOL       0.000000
      5 C3          16.8880    22.3720    13.9900 cc         1 MOL       0.000000
      6 C4          16.7060    23.7690    13.9870 cd         1 MOL       0.000000
      7 C5          17.3140    24.5700    15.0080 cd         1 MOL       0.000000
      8 C6          18.1000    23.9530    16.0100 cd         1 MOL       0.000000
      9 C7          18.2850    22.5470    16.0070 cc         1 MOL       0.000000
     10 O1          15.8770    24.4000    12.9230 oh         1 MOL       0.000000
     11 H2          15.7350    25.3960    13.1440 ho         1 MOL       0.000000
     12 C8          17.1310    26.0310    15.0230 c2         1 MOL       0.000000
     13 N2          17.2230    26.7190    13.8960 nh         1 MOL       0.000000
     14 H3          17.0960    27.7410    13.9050 hn         1 MOL       0.000000
     15 H4          17.4220    26.2330    13.0100 hn         1 MOL       0.000000
     16 N3          16.8740    26.6600    16.1670 nh         1 MOL       0.000000
     17 H5          15.9460    26.5720    16.6060 hn         1 MOL       0.000000
     18 H6          17.6030    27.2350    16.6140 hn         1 MOL       0.000000
     19 C9          18.9930    19.2400    16.8740 c          1 MOL       0.000000
     20 O2          19.9910    19.0700    17.5870 o          1 MOL       0.000000
     21 N4          17.7700    19.0010    17.3190 n          1 MOL       0.000000
     22 H7          16.9800    19.1580    16.6770 hn         1 MOL       0.000000
     23 S1          17.4360    18.4580    18.8630 sy         1 MOL       0.000000
     24 O3          18.0760    19.3160    19.8170 o          1 MOL       0.000000
     25 O4          17.8600    17.1010    19.0020 o          1 MOL       0.000000
     26 C10         15.7100    18.5660    19.0100 ca         1 MOL       0.000000
     27 C11         15.0910    18.8410    20.2600 ca         1 MOL       0.000000
     28 C12         13.6600    18.9190    20.3270 ca         1 MOL       0.000000
     29 C13         12.8730    18.7240    19.1500 ca         1 MOL       0.000000
     30 C14         13.5050    18.4520    17.9010 ca         1 MOL       0.000000
     31 C15         14.9190    18.3730    17.8340 ca         1 MOL       0.000000
     32 N5          12.7740    18.2690    16.7970 nh         1 MOL       0.000000
     33 H8          13.2100    17.8820    15.9480 hn         1 MOL       0.000000
     34 H9          11.7730    18.5160    16.7950 hn         1 MOL       0.000000
     35 C16         19.3630    18.4610    14.6040 ca         1 MOL       0.000000
     36 C17         19.6390    18.5870    13.2180 ca         1 MOL       0.000000
     37 F1          19.6830    19.7950    12.6360 f          1 MOL       0.000000
     38 C18         19.8710    17.4460    12.4400 ca         1 MOL       0.000000
     39 C19         19.8310    16.1610    13.0240 ca         1 MOL       0.000000
     40 C20         19.5610    16.0080    14.3970 ca         1 MOL       0.000000
     41 C21         19.3200    17.1570    15.2070 ca         1 MOL       0.000000
     42 O5          20.1450    17.6000    10.9970 os         1 MOL       0.000000
     43 C22         20.5310    16.2280    10.3680 c3         1 MOL       0.000000
     44 C23         19.4910    15.8610     9.3090 c3         1 MOL       0.000000
     45 O6          19.5290    14.6250    14.9370 os         1 MOL       0.000000
     46 C24         19.7540    14.5660    16.4570 c3         1 MOL       0.000000
     47 C25         18.4000    14.2800    17.1000 c3         1 MOL       0.000000
     48 H10         19.8640    20.4800    15.3980 h1         1 MOL       0.000000
     49 H11         16.4480    21.7930    13.2580 ha         1 MOL       0.000000
     50 H12         18.5400    24.5280    16.7450 ha         1 MOL       0.000000
     51 H13         18.8610    22.0990    16.7370 ha         1 MOL       0.000000
     52 H14         15.6630    18.9830    21.1070 ha         1 MOL       0.000000
     53 H15         13.1970    19.1170    21.2280 ha         1 MOL       0.000000
     54 H16         11.8440    18.7800    19.2040 ha         1 MOL       0.000000
     55 H17         15.3800    18.1750    16.9320 ha         1 MOL       0.000000
     56 H18         20.0010    15.3280    12.4400 ha         1 MOL       0.000000
     57 H19         19.1170    17.0530    16.2140 ha         1 MOL       0.000000
     58 H20         21.4970    16.3000     9.9140 h1         1 MOL       0.000000
     59 H21         20.5580    15.4750    11.1270 h1         1 MOL       0.000000
     60 H22         19.4690    16.6180     8.5530 hc         1 MOL       0.000000
     61 H23         18.5270    15.7870     9.7670 hc         1 MOL       0.000000
     62 H24         19.7490    14.9220     8.8660 hc         1 MOL       0.000000
     63 H25         20.1370    15.5020    16.8080 h1         1 MOL       0.000000
     64 H26         20.4630    13.8050    16.7080 h1         1 MOL       0.000000
     65 H27         17.7090    15.0530    16.8350 hc         1 MOL       0.000000
     66 H28         18.5100    14.2490    18.1640 hc         1 MOL       0.000000
     67 H29         18.0320    13.3380    16.7520 hc         1 MOL       0.000000
@<TRIPOS>BOND
     1     1    19 1   
     2     1    48 1   
     3     2     4 2   
     4     2     1 1   
     5     3     2 1   
     6     4     9 1   
     7     5     4 1   
     8     5    49 1   
     9     6     5 2   
    10     6     7 1   
    11     7    12 2   
    12     7     8 1   
    13     8    50 1   
    14     9     8 2   
    15     9    51 1   
    16    10    11 1   
    17    10     6 1   
    18    12    16 1   
    19    13    14 1   
    20    13    12 1   
    21    15    13 1   
    22    16    17 1   
    23    16    18 1   
    24    19    21 1   
    25    19    20 2   
    26    21    23 1   
    27    22    21 1   
    28    23    25 2   
    29    23    26 1   
    30    23    24 2   
    31    26    27 ar  
    32    27    28 ar  
    33    27    52 1   
    34    28    53 1   
    35    29    28 ar  
    36    29    54 1   
    37    30    29 ar  
    38    31    30 ar  
    39    31    26 ar  
    40    31    55 1   
    41    32    30 1   
    42    33    32 1   
    43    34    32 1   
    44    35    41 ar  
    45    35     1 1   
    46    36    35 ar  
    47    37    36 1   
    48    38    39 ar  
    49    38    36 ar  
    50    39    40 ar  
    51    39    56 1   
    52    40    45 1   
    53    40    41 ar  
    54    41    57 1   
    55    42    38 1   
    56    43    42 1   
    57    43    58 1   
    58    43    59 1   
    59    44    43 1   
    60    44    60 1   
    61    44    61 1   
    62    44    62 1   
    63    45    46 1   
    64    46    47 1   
    65    46    63 1   
    66    46    64 1   
    67    47    65 1   
    68    47    66 1   
    69    47    67 1   
@<TRIPOS>SUBSTRUCTURE
     1 MOL         1 TEMP              0 ****  ****    0 ROOT
