@<TRIPOS>MOLECULE
MOL
   67    69     1     0     0
SMALL
No Charge or Current Charge


@<TRIPOS>ATOM
      1 C1          18.3890    20.2280    15.4550 c3         1 MOL       0.000000
      2 N1          19.6970    20.1060    14.8000 nh         1 MOL       0.000000
      3 H1          20.4940    20.6730    15.1240 hn         1 MOL       0.000000
      4 C2          19.8600    19.1860    13.6940 cc         1 MOL       0.000000
      5 C3          19.6700    19.6600    12.3690 cc         1 MOL       0.000000
      6 C4          19.8320    18.7850    11.2770 cd         1 MOL       0.000000
      7 C5          20.1950    17.4170    11.5080 cd         1 MOL       0.000000
      8 C6          20.3800    16.9520    12.8310 cd         1 MOL       0.000000
      9 C7          20.2120    17.8350    13.9270 cc         1 MOL       0.000000
     10 O1          19.6310    19.2920     9.8920 oh         1 MOL       0.000000
     11 H2          18.6650    19.0960     9.5910 ho         1 MOL       0.000000
     12 C8          20.3720    16.4890    10.3780 c2         1 MOL       0.000000
     13 N2          19.3360    16.1610     9.6230 nh         1 MOL       0.000000
     14 H3          19.4580    15.5110     8.8340 hn         1 MOL       0.000000
     15 H4          18.4050    16.5550     9.8260 hn         1 MOL       0.000000
     16 N3          21.5730    15.9780    10.1160 nh         1 MOL       0.000000
     17 H5          22.2880    16.5560     9.6510 hn         1 MOL       0.000000
     18 H6          21.7880    15.0050    10.3780 hn         1 MOL       0.000000
     19 C9          18.4730    19.9750    16.9300 c          1 MOL       0.000000
     20 O2          19.4580    20.3180    17.5980 o          1 MOL       0.000000
     21 N4          17.4340    19.3680    17.4800 n          1 MOL       0.000000
     22 H7          16.6470    19.1040    16.8700 hn         1 MOL       0.000000
     23 S1          17.3280    19.0070    19.1070 sy         1 MOL       0.000000
     24 O3          17.8870    20.0850    19.8700 o          1 MOL       0.000000
     25 O4          17.9900    17.7700    19.3730 o          1 MOL       0.000000
     26 C10         15.6280    18.8590    19.4210 ca         1 MOL       0.000000
     27 C11         15.1000    19.0300    20.7300 ca         1 MOL       0.000000
     28 C12         13.6870    18.8960    20.9360 ca         1 MOL       0.000000
     29 C13         12.8260    18.5960    19.8350 ca         1 MOL       0.000000
     30 C14         13.3650    18.4290    18.5260 ca         1 MOL       0.000000
     31 C15         14.7620    18.5600    18.3220 ca         1 MOL       0.000000
     32 N5          12.5640    18.1500    17.4930 nh         1 MOL       0.000000
     33 H8          11.8150    17.4490    17.5970 hn         1 MOL       0.000000
     34 H9          12.6940    18.6350    16.5930 hn         1 MOL       0.000000
     35 C16         17.9460    21.7150    15.3190 ca         1 MOL       0.000000
     36 C17         17.1700    22.1240    14.2040 ca         1 MOL       0.000000
     37 F1          16.8050    21.2400    13.2630 f          1 MOL       0.000000
     38 C18         16.7730    23.4610    14.0750 ca         1 MOL       0.000000
     39 C19         17.1410    24.4150    15.0490 ca         1 MOL       0.000000
     40 C20         17.9100    24.0350    16.1660 ca         1 MOL       0.000000
     41 C21         18.3260    22.6790    16.3160 ca         1 MOL       0.000000
     42 O5          15.9750    23.8660    12.9000 os         1 MOL       0.000000
     43 C22         16.8420    24.7140    11.9220 c3         1 MOL       0.000000
     44 C23         16.6040    24.2170    10.4960 c3         1 MOL       0.000000
     45 O6          18.2630    25.0950    17.1440 os         1 MOL       0.000000
     46 C24         17.8380    26.5010    16.6890 c3         1 MOL       0.000000
     47 C25         18.9380    27.0290    15.7730 c3         1 MOL       0.000000
     48 H10         17.7240    19.5230    15.0030 h1         1 MOL       0.000000
     49 H11         19.4130    20.6460    12.2060 ha         1 MOL       0.000000
     50 H12         20.6380    15.9670    12.9990 ha         1 MOL       0.000000
     51 H13         20.3460    17.4940    14.8920 ha         1 MOL       0.000000
     52 H14         15.7250    19.2480    21.5220 ha         1 MOL       0.000000
     53 H15         13.2910    19.0160    21.8810 ha         1 MOL       0.000000
     54 H16         11.8100    18.5000    19.9880 ha         1 MOL       0.000000
     55 H17         15.1560    18.4390    17.3760 ha         1 MOL       0.000000
     56 H18         16.8440    25.3980    14.9410 ha         1 MOL       0.000000
     57 H19         18.8930    22.3930    17.1300 ha         1 MOL       0.000000
     58 H20         16.5630    25.7440    11.9950 h1         1 MOL       0.000000
     59 H21         17.8770    24.6140    12.1740 h1         1 MOL       0.000000
     60 H22         15.5680    24.3190    10.2510 hc         1 MOL       0.000000
     61 H23         16.8870    23.1880    10.4250 hc         1 MOL       0.000000
     62 H24         17.1910    24.7960     9.8140 hc         1 MOL       0.000000
     63 H25         16.9110    26.4500    16.1570 h1         1 MOL       0.000000
     64 H26         17.7010    27.1480    17.5300 h1         1 MOL       0.000000
     65 H27         19.0570    26.3670    14.9410 hc         1 MOL       0.000000
     66 H28         19.8580    27.0870    16.3170 hc         1 MOL       0.000000
     67 H29         18.6710    28.0030    15.4190 hc         1 MOL       0.000000
@<TRIPOS>BOND
     1     1    19 1   
     2     1    48 1   
     3     2     3 1   
     4     2     1 1   
     5     4     9 1   
     6     4     2 2   
     7     5     4 1   
     8     5    49 1   
     9     6     7 1   
    10     6     5 2   
    11     7     8 1   
    12     8     9 2   
    13     8    50 1   
    14     9    51 1   
    15    10     6 1   
    16    11    10 1   
    17    12     7 2   
    18    13    15 1   
    19    13    12 1   
    20    14    13 1   
    21    16    18 1   
    22    16    12 1   
    23    17    16 1   
    24    19    21 1   
    25    19    20 2   
    26    21    23 1   
    27    22    21 1   
    28    23    25 2   
    29    23    26 1   
    30    23    24 2   
    31    26    27 ar  
    32    27    28 ar  
    33    27    52 1   
    34    28    53 1   
    35    29    28 ar  
    36    29    54 1   
    37    30    29 ar  
    38    31    30 ar  
    39    31    26 ar  
    40    31    55 1   
    41    32    33 1   
    42    32    30 1   
    43    34    32 1   
    44    35     1 1   
    45    35    41 ar  
    46    36    35 ar  
    47    37    36 1   
    48    38    36 ar  
    49    38    39 ar  
    50    39    40 ar  
    51    39    56 1   
    52    40    41 ar  
    53    40    45 1   
    54    41    57 1   
    55    42    38 1   
    56    43    42 1   
    57    43    58 1   
    58    43    59 1   
    59    44    43 1   
    60    44    60 1   
    61    44    61 1   
    62    44    62 1   
    63    46    45 1   
    64    46    63 1   
    65    46    64 1   
    66    47    46 1   
    67    47    65 1   
    68    47    66 1   
    69    47    67 1   
@<TRIPOS>SUBSTRUCTURE
     1 MOL         1 TEMP              0 ****  ****    0 ROOT
