@<TRIPOS>MOLECULE
MOL
   67    69     1     0     0
SMALL
No Charge or Current Charge


@<TRIPOS>ATOM
      1 C1          18.3160    19.6060    16.4370 c3         1 MOL       0.000000
      2 N1          19.0360    20.8820    16.5330 nh         1 MOL       0.000000
      3 H1          19.9660    20.9190    16.9730 hn         1 MOL       0.000000
      4 C2          18.4310    22.0860    16.0050 cc         1 MOL       0.000000
      5 C3          18.5620    23.2990    16.7320 cc         1 MOL       0.000000
      6 C4          17.9890    24.4850    16.2340 cd         1 MOL       0.000000
      7 C5          17.2780    24.4660    14.9890 cd         1 MOL       0.000000
      8 C6          17.1490    23.2530    14.2720 cd         1 MOL       0.000000
      9 C7          17.7240    22.0600    14.7800 cc         1 MOL       0.000000
     10 O1          18.1320    25.7510    17.0030 oh         1 MOL       0.000000
     11 H2          18.7950    26.3750    16.5190 ho         1 MOL       0.000000
     12 C8          16.6750    25.6970    14.4510 c2         1 MOL       0.000000
     13 N2          15.4690    25.6590    13.9080 nh         1 MOL       0.000000
     14 H3          15.0460    26.5190    13.5310 hn         1 MOL       0.000000
     15 H4          14.9520    24.7680    13.8620 hn         1 MOL       0.000000
     16 N3          17.3420    26.8470    14.5090 nh         1 MOL       0.000000
     17 H5          17.0620    27.6350    13.9070 hn         1 MOL       0.000000
     18 H6          18.1370    26.9500    15.1560 hn         1 MOL       0.000000
     19 C9          19.2450    18.4520    16.2080 c          1 MOL       0.000000
     20 O2          20.0550    18.0830    17.0680 o          1 MOL       0.000000
     21 N4          19.1470    17.8460    15.0360 n          1 MOL       0.000000
     22 H7          18.4550    18.2010    14.3610 hn         1 MOL       0.000000
     23 S1          20.0820    16.5350    14.5920 sy         1 MOL       0.000000
     24 O3          19.5780    15.3540    15.2300 o          1 MOL       0.000000
     25 O4          21.4490    16.7780    14.9280 o          1 MOL       0.000000
     26 C10         19.8980    16.4190    12.8700 ca         1 MOL       0.000000
     27 C11         19.6950    15.1660    12.2300 ca         1 MOL       0.000000
     28 C12         19.5500    15.1260    10.8040 ca         1 MOL       0.000000
     29 C13         19.6090    16.3340    10.0410 ca         1 MOL       0.000000
     30 C14         19.8110    17.5860    10.6930 ca         1 MOL       0.000000
     31 C15         19.9560    17.6260    12.1020 ca         1 MOL       0.000000
     32 N5          19.8670    18.7180     9.9840 nh         1 MOL       0.000000
     33 H8          19.0000    19.1420     9.6230 hn         1 MOL       0.000000
     34 H9          20.7760    19.1660     9.7990 hn         1 MOL       0.000000
     35 C16         17.6680    19.3410    17.8280 ca         1 MOL       0.000000
     36 C17         16.5310    18.4990    17.9310 ca         1 MOL       0.000000
     37 F1          16.0060    17.9200    16.8400 f          1 MOL       0.000000
     38 C18         15.9420    18.2610    19.1790 ca         1 MOL       0.000000
     39 C19         16.4710    18.8550    20.3460 ca         1 MOL       0.000000
     40 C20         17.6000    19.6930    20.2720 ca         1 MOL       0.000000
     41 C21         18.2140    19.9510    19.0100 ca         1 MOL       0.000000
     42 O5          14.7520    17.3910    19.2620 os         1 MOL       0.000000
     43 C22         13.5090    18.2130    19.7160 c3         1 MOL       0.000000
     44 C23         12.9320    18.9450    18.5040 c3         1 MOL       0.000000
     45 O6          18.0940    20.2880    21.5400 os         1 MOL       0.000000
     46 C24         19.4970    20.9040    21.4100 c3         1 MOL       0.000000
     47 C25         19.3350    22.4170    21.5160 c3         1 MOL       0.000000
     48 H10         17.6190    19.6770    15.6280 h1         1 MOL       0.000000
     49 H11         19.0780    23.3110    17.6260 ha         1 MOL       0.000000
     50 H12         16.6350    23.2360    13.3770 ha         1 MOL       0.000000
     51 H13         17.6270    21.1750    14.2570 ha         1 MOL       0.000000
     52 H14         19.6520    14.2970    12.7840 ha         1 MOL       0.000000
     53 H15         19.4030    14.2230    10.3270 ha         1 MOL       0.000000
     54 H16         19.5050    16.3000     9.0150 ha         1 MOL       0.000000
     55 H17         20.1040    18.5300    12.5770 ha         1 MOL       0.000000
     56 H18         16.0270    18.6740    21.2600 ha         1 MOL       0.000000
     57 H19         19.0390    20.5670    18.9470 ha         1 MOL       0.000000
     58 H20         12.7710    17.5540    20.1230 h1         1 MOL       0.000000
     59 H21         13.7960    18.9210    20.4650 h1         1 MOL       0.000000
     60 H22         12.6480    18.2320    17.7590 hc         1 MOL       0.000000
     61 H23         13.6710    19.6060    18.1020 hc         1 MOL       0.000000
     62 H24         12.0740    19.5090    18.8030 hc         1 MOL       0.000000
     63 H25         20.1290    20.5470    22.1960 h1         1 MOL       0.000000
     64 H26         19.9460    20.6340    20.4770 h1         1 MOL       0.000000
     65 H27         18.8850    22.6630    22.4550 hc         1 MOL       0.000000
     66 H28         18.7110    22.7660    20.7190 hc         1 MOL       0.000000
     67 H29         20.2950    22.8840    21.4480 hc         1 MOL       0.000000
@<TRIPOS>BOND
     1     1     2 1   
     2     1    35 1   
     3     1    48 1   
     4     2     3 1   
     5     4     2 2   
     6     4     5 1   
     7     5    49 1   
     8     6     5 2   
     9     6    10 1   
    10     7     6 1   
    11     8     9 2   
    12     8     7 1   
    13     8    50 1   
    14     9     4 1   
    15     9    51 1   
    16    11    10 1   
    17    12    16 1   
    18    12     7 2   
    19    13    12 1   
    20    14    13 1   
    21    15    13 1   
    22    16    18 1   
    23    17    16 1   
    24    19     1 1   
    25    19    20 2   
    26    21    19 1   
    27    22    21 1   
    28    23    25 2   
    29    23    21 1   
    30    23    24 2   
    31    26    23 1   
    32    27    26 ar  
    33    27    52 1   
    34    28    27 ar  
    35    28    53 1   
    36    29    30 ar  
    37    29    28 ar  
    38    29    54 1   
    39    30    31 ar  
    40    31    26 ar  
    41    31    55 1   
    42    32    30 1   
    43    33    32 1   
    44    34    32 1   
    45    35    36 ar  
    46    35    41 ar  
    47    36    38 ar  
    48    37    36 1   
    49    38    42 1   
    50    38    39 ar  
    51    39    56 1   
    52    40    39 ar  
    53    40    45 1   
    54    41    40 ar  
    55    41    57 1   
    56    42    43 1   
    57    43    58 1   
    58    43    59 1   
    59    44    43 1   
    60    44    60 1   
    61    44    61 1   
    62    44    62 1   
    63    46    47 1   
    64    46    45 1   
    65    46    63 1   
    66    46    64 1   
    67    47    65 1   
    68    47    66 1   
    69    47    67 1   
@<TRIPOS>SUBSTRUCTURE
     1 MOL         1 TEMP              0 ****  ****    0 ROOT
