MODEL 1
REMARK VINA RESULT:      -7.5      0.000      0.000
REMARK  5 active torsions:
REMARK  status: ('A' for Active; 'I' for Inactive)
REMARK    1  A    between atoms: N_1  and  CA_5 
REMARK    2  A    between atoms: CA_5  and  C_6 
REMARK    3  A    between atoms: CA_5  and  CB_8 
REMARK    4  A    between atoms: CB_8  and  CG_9 
REMARK    5  A    between atoms: CZ_14  and  OH_15 
ROOT
ATOM      1  CB  TYR d   1      -6.679   5.711  15.823  0.00  0.00     0.082 C 
ENDROOT
BRANCH   1   2
ATOM      2  CA  TYR d   1      -7.359   4.342  15.792  0.00  0.00     0.287 C 
BRANCH   2   3
ATOM      3  N   TYR d   1      -7.280   3.775  17.138  0.00  0.00    -0.065 N 
ATOM      4  H1  TYR d   1      -6.390   3.615  17.565  0.00  0.00     0.275 HD
ATOM      5  H2  TYR d   1      -7.855   4.328  17.760  0.00  0.00     0.275 HD
ATOM      6  H3  TYR d   1      -7.837   2.923  17.091  0.00  0.00     0.275 HD
ENDBRANCH   2   3
BRANCH   2   7
ATOM      7  C   TYR d   1      -6.684   3.453  14.772  0.00  0.00     0.204 C 
ATOM      8  O   TYR d   1      -5.629   2.797  15.008  0.00  0.00    -0.646 OA
ATOM      9  OXT TYR d   1      -7.262   3.386  13.689  0.00  0.00    -0.646 OA
ENDBRANCH   2   7
ENDBRANCH   1   2
BRANCH   1  10
ATOM     10  CG  TYR d   1      -7.449   6.814  16.523  0.00  0.00    -0.056 A 
ATOM     11  CD1 TYR d   1      -8.353   7.547  15.816  0.00  0.00     0.010 A 
ATOM     12  CE1 TYR d   1      -9.028   8.554  16.450  0.00  0.00     0.037 A 
ATOM     13  CZ  TYR d   1      -8.855   8.817  17.783  0.00  0.00     0.065 A 
ATOM     14  CE2 TYR d   1      -7.924   8.097  18.521  0.00  0.00     0.037 A 
ATOM     15  CD2 TYR d   1      -7.219   7.108  17.862  0.00  0.00     0.010 A 
BRANCH  13  16
ATOM     16  OH  TYR d   1      -9.507   9.781  18.299  0.00  0.00    -0.361 OA
ATOM     17  HH  TYR d   1     -10.231  10.100  17.638  0.00  0.00     0.217 HD
ENDBRANCH  13  16
ENDBRANCH   1  10
TORSDOF 5
ENDMDL
MODEL 2
REMARK VINA RESULT:      -7.4      3.293      4.033
REMARK  5 active torsions:
REMARK  status: ('A' for Active; 'I' for Inactive)
REMARK    1  A    between atoms: N_1  and  CA_5 
REMARK    2  A    between atoms: CA_5  and  C_6 
REMARK    3  A    between atoms: CA_5  and  CB_8 
REMARK    4  A    between atoms: CB_8  and  CG_9 
REMARK    5  A    between atoms: CZ_14  and  OH_15 
ROOT
ATOM      1  CB  TYR d   1      -7.344   7.429  19.116  0.00  0.00     0.082 C 
ENDROOT
BRANCH   1   2
ATOM      2  CA  TYR d   1      -6.171   6.503  18.793  0.00  0.00     0.287 C 
BRANCH   2   3
ATOM      3  N   TYR d   1      -6.386   5.247  19.510  0.00  0.00    -0.065 N 
ATOM      4  H1  TYR d   1      -7.122   5.171  20.184  0.00  0.00     0.275 HD
ATOM      5  H2  TYR d   1      -6.470   4.495  18.838  0.00  0.00     0.275 HD
ATOM      6  H3  TYR d   1      -5.478   5.023  19.915  0.00  0.00     0.275 HD
ENDBRANCH   2   3
BRANCH   2   7
ATOM      7  C   TYR d   1      -4.869   7.158  19.194  0.00  0.00     0.204 C 
ATOM      8  O   TYR d   1      -4.488   7.274  20.394  0.00  0.00    -0.646 OA
ATOM      9  OXT TYR d   1      -4.181   7.549  18.253  0.00  0.00    -0.646 OA
ENDBRANCH   2   7
ENDBRANCH   1   2
BRANCH   1  10
ATOM     10  CG  TYR d   1      -8.148   7.915  17.925  0.00  0.00    -0.056 A 
ATOM     11  CD1 TYR d   1      -7.876   7.414  16.688  0.00  0.00     0.010 A 
ATOM     12  CE1 TYR d   1      -8.591   7.873  15.617  0.00  0.00     0.037 A 
ATOM     13  CZ  TYR d   1      -9.602   8.786  15.757  0.00  0.00     0.065 A 
ATOM     14  CE2 TYR d   1      -9.887   9.327  17.005  0.00  0.00     0.037 A 
ATOM     15  CD2 TYR d   1      -9.131   8.886  18.074  0.00  0.00     0.010 A 
BRANCH  13  16
ATOM     16  OH  TYR d   1     -10.213   9.178  14.710  0.00  0.00    -0.361 OA
ATOM     17  HH  TYR d   1      -9.938  10.147  14.494  0.00  0.00     0.217 HD
ENDBRANCH  13  16
ENDBRANCH   1  10
TORSDOF 5
ENDMDL
MODEL 3
REMARK VINA RESULT:      -7.3      3.538      4.088
REMARK  5 active torsions:
REMARK  status: ('A' for Active; 'I' for Inactive)
REMARK    1  A    between atoms: N_1  and  CA_5 
REMARK    2  A    between atoms: CA_5  and  C_6 
REMARK    3  A    between atoms: CA_5  and  CB_8 
REMARK    4  A    between atoms: CB_8  and  CG_9 
REMARK    5  A    between atoms: CZ_14  and  OH_15 
ROOT
ATOM      1  CB  TYR d   1      -6.554   6.566  18.032  0.00  0.00     0.082 C 
ENDROOT
BRANCH   1   2
ATOM      2  CA  TYR d   1      -5.749   7.130  19.204  0.00  0.00     0.287 C 
BRANCH   2   3
ATOM      3  N   TYR d   1      -4.539   7.743  18.657  0.00  0.00    -0.065 N 
ATOM      4  H1  TYR d   1      -4.599   8.588  18.125  0.00  0.00     0.275 HD
ATOM      5  H2  TYR d   1      -3.868   7.866  19.404  0.00  0.00     0.275 HD
ATOM      6  H3  TYR d   1      -4.087   6.995  18.133  0.00  0.00     0.275 HD
ENDBRANCH   2   3
BRANCH   2   7
ATOM      7  C   TYR d   1      -5.422   6.027  20.185  0.00  0.00     0.204 C 
ATOM      8  O   TYR d   1      -4.241   5.705  20.502  0.00  0.00    -0.646 OA
ATOM      9  OXT TYR d   1      -6.402   5.479  20.684  0.00  0.00    -0.646 OA
ENDBRANCH   2   7
ENDBRANCH   1   2
BRANCH   1  10
ATOM     10  CG  TYR d   1      -7.666   7.455  17.508  0.00  0.00    -0.056 A 
ATOM     11  CD1 TYR d   1      -8.339   8.261  18.373  0.00  0.00     0.010 A 
ATOM     12  CE1 TYR d   1      -9.354   9.044  17.896  0.00  0.00     0.037 A 
ATOM     13  CZ  TYR d   1      -9.683   9.074  16.566  0.00  0.00     0.065 A 
ATOM     14  CE2 TYR d   1      -9.024   8.246  15.665  0.00  0.00     0.037 A 
ATOM     15  CD2 TYR d   1      -8.027   7.430  16.166  0.00  0.00     0.010 A 
BRANCH  13  16
ATOM     16  OH  TYR d   1     -10.651   9.816  16.199  0.00  0.00    -0.361 OA
ATOM     17  HH  TYR d   1     -11.345   9.876  16.958  0.00  0.00     0.217 HD
ENDBRANCH  13  16
ENDBRANCH   1  10
TORSDOF 5
ENDMDL
