@<TRIPOS>MOLECULE
MOL
   25    25     1     0     0
SMALL
No Charge or Current Charge


@<TRIPOS>ATOM
      1 C1          -7.3440     7.4290    19.1160 c3         1 MOL       0.000000
      2 C2          -6.1710     6.5030    18.7930 c3         1 MOL       0.000000
      3 N1          -6.3860     5.2470    19.5100 n4         1 MOL       0.000000
      4 H1          -7.1220     5.1710    20.1840 hn         1 MOL       0.000000
      5 H2          -6.4700     4.4950    18.8380 hn         1 MOL       0.000000
      6 H3          -5.4780     5.0230    19.9150 hn         1 MOL       0.000000
      7 C3          -4.8690     7.1580    19.1940 c          1 MOL       0.000000
      8 O1          -4.4880     7.2740    20.3940 oh         1 MOL       0.000000
      9 O2          -4.1810     7.5490    18.2530 o          1 MOL       0.000000
     10 C4          -8.1480     7.9150    17.9250 ca         1 MOL       0.000000
     11 C5          -7.8760     7.4140    16.6880 ca         1 MOL       0.000000
     12 C6          -8.5910     7.8730    15.6170 ca         1 MOL       0.000000
     13 C7          -9.6020     8.7860    15.7570 ca         1 MOL       0.000000
     14 C8          -9.8870     9.3270    17.0050 ca         1 MOL       0.000000
     15 C9          -9.1310     8.8860    18.0740 ca         1 MOL       0.000000
     16 O3         -10.2130     9.1780    14.7100 oh         1 MOL       0.000000
     17 H4          -9.9380    10.1470    14.4940 ho         1 MOL       0.000000
     18 H5          -8.0090     6.9020    19.7680 hc         1 MOL       0.000000
     19 H6          -6.9110     8.3050    19.5520 hc         1 MOL       0.000000
     20 H7          -6.1140     6.3080    17.7430 hx         1 MOL       0.000000
     21 H8          -5.0340     6.9670    21.0910 ho         1 MOL       0.000000
     22 H9          -7.1420     6.7000    16.5610 ha         1 MOL       0.000000
     23 H10         -8.3620     7.5210    14.6740 ha         1 MOL       0.000000
     24 H11        -10.6330    10.0300    17.1280 ha         1 MOL       0.000000
     25 H12         -9.3010     9.2890    19.0090 ha         1 MOL       0.000000
@<TRIPOS>BOND
     1     1    18 1   
     2     1    19 1   
     3     2     1 1   
     4     2     7 1   
     5     2     3 1   
     6     2    20 1   
     7     3     6 1   
     8     3     4 1   
     9     5     3 1   
    10     7     8 1   
    11     8    21 1   
    12     9     7 2   
    13    10    15 ar  
    14    10     1 1   
    15    11    10 ar  
    16    11    22 1   
    17    12    13 ar  
    18    12    11 ar  
    19    12    23 1   
    20    13    14 ar  
    21    14    15 ar  
    22    14    24 1   
    23    15    25 1   
    24    16    13 1   
    25    17    16 1   
@<TRIPOS>SUBSTRUCTURE
     1 MOL         1 TEMP              0 ****  ****    0 ROOT
