@<TRIPOS>MOLECULE
MOL
   25    25     1     0     0
SMALL
No Charge or Current Charge


@<TRIPOS>ATOM
      1 C1          -6.5540     6.5660    18.0320 c3         1 MOL       0.000000
      2 C2          -5.7490     7.1300    19.2040 c3         1 MOL       0.000000
      3 N1          -4.5390     7.7430    18.6570 n4         1 MOL       0.000000
      4 H1          -4.5990     8.5880    18.1250 hn         1 MOL       0.000000
      5 H2          -3.8680     7.8660    19.4040 hn         1 MOL       0.000000
      6 H3          -4.0870     6.9950    18.1330 hn         1 MOL       0.000000
      7 C3          -5.4220     6.0270    20.1850 c          1 MOL       0.000000
      8 O1          -4.2410     5.7050    20.5020 o          1 MOL       0.000000
      9 O2          -6.4020     5.4790    20.6840 oh         1 MOL       0.000000
     10 C4          -7.6660     7.4550    17.5080 ca         1 MOL       0.000000
     11 C5          -8.3390     8.2610    18.3730 ca         1 MOL       0.000000
     12 C6          -9.3540     9.0440    17.8960 ca         1 MOL       0.000000
     13 C7          -9.6830     9.0740    16.5660 ca         1 MOL       0.000000
     14 C8          -9.0240     8.2460    15.6650 ca         1 MOL       0.000000
     15 C9          -8.0270     7.4300    16.1660 ca         1 MOL       0.000000
     16 O3         -10.6510     9.8160    16.1990 oh         1 MOL       0.000000
     17 H4         -11.3450     9.8760    16.9580 ho         1 MOL       0.000000
     18 H5          -5.8750     6.3800    17.2260 hc         1 MOL       0.000000
     19 H6          -7.0360     5.6870    18.4060 hc         1 MOL       0.000000
     20 H7          -6.3110     7.8680    19.7380 hx         1 MOL       0.000000
     21 H8          -7.2650     5.7400    20.4290 ho         1 MOL       0.000000
     22 H9          -8.0880     8.2810    19.3740 ha         1 MOL       0.000000
     23 H10         -9.8880     9.6300    18.5570 ha         1 MOL       0.000000
     24 H11         -9.2690     8.2410    14.6620 ha         1 MOL       0.000000
     25 H12         -7.5370     6.7850    15.5260 ha         1 MOL       0.000000
@<TRIPOS>BOND
     1     1     2 1   
     2     1    18 1   
     3     1    19 1   
     4     2     7 1   
     5     2    20 1   
     6     3     2 1   
     7     3     5 1   
     8     4     3 1   
     9     6     3 1   
    10     7     8 2   
    11     7     9 1   
    12     9    21 1   
    13    10     1 1   
    14    10    11 ar  
    15    11    22 1   
    16    12    11 ar  
    17    12    23 1   
    18    13    12 ar  
    19    14    15 ar  
    20    14    13 ar  
    21    14    24 1   
    22    15    10 ar  
    23    15    25 1   
    24    16    13 1   
    25    16    17 1   
@<TRIPOS>SUBSTRUCTURE
     1 MOL         1 TEMP              0 ****  ****    0 ROOT
