MODEL 1
REMARK VINA RESULT:      -5.3      0.000      0.000
REMARK  3 active torsions:
REMARK  status: ('A' for Active; 'I' for Inactive)
REMARK       I    between atoms: N_3  and  C4_6 
REMARK    1  A    between atoms: C4_6  and  C5_7 
REMARK    2  A    between atoms: C5_7  and  C6_8 
REMARK    3  A    between atoms: C5_7  and  N1_11 
ROOT
ATOM      1  C5  UNL d          64.152  46.063  25.081  0.00  0.00     0.261 C 
ENDROOT
BRANCH   1   2
ATOM      2  C4  UNL d          64.510  44.870  25.860  0.00  0.00     0.384 C 
ATOM      3  N   UNL d          65.029  43.604  25.342  0.00  0.00     0.134 N 
ATOM      4  C1  UNL d          64.157  42.977  24.335  0.00  0.00     0.277 C 
ATOM      5  C2  UNL d          65.288  42.531  26.331  0.00  0.00     0.277 C 
ATOM      6  C   UNL d          64.597  41.434  24.314  0.00  0.00     0.032 C 
ATOM      7  C3  UNL d          65.749  41.371  25.414  0.00  0.00     0.032 C 
ATOM      8  O   UNL d          64.325  44.969  27.219  0.00  0.00    -0.186 OA
ENDBRANCH   1   2
BRANCH   1   9
ATOM      9  C6  UNL d          65.259  46.922  24.539  0.00  0.00     0.013 C 
ATOM     10  C7  UNL d          66.358  47.184  25.481  0.00  0.00     0.012 C 
ATOM     11  C8  UNL d          65.989  46.169  23.210  0.00  0.00     0.012 C 
ENDBRANCH   1   9
BRANCH   1  12
ATOM     12  N1  UNL d          63.236  46.964  25.855  0.00  0.00    -0.070 N 
ATOM     13  H13 UNL d          63.540  47.079  26.812  0.00  0.00     0.274 HD
ATOM     14  H14 UNL d          63.152  47.891  25.459  0.00  0.00     0.274 HD
ATOM     15  H15 UNL d          62.297  46.581  25.881  0.00  0.00     0.274 HD
ENDBRANCH   1  12
TORSDOF 3
ENDMDL
MODEL 2
REMARK VINA RESULT:      -5.2      3.722      5.216
REMARK  3 active torsions:
REMARK  status: ('A' for Active; 'I' for Inactive)
REMARK       I    between atoms: N_3  and  C4_6 
REMARK    1  A    between atoms: C4_6  and  C5_7 
REMARK    2  A    between atoms: C5_7  and  C6_8 
REMARK    3  A    between atoms: C5_7  and  N1_11 
ROOT
ATOM      1  C5  UNL d          69.153  47.203  26.897  0.00  0.00     0.261 C 
ENDROOT
BRANCH   1   2
ATOM      2  C4  UNL d          68.478  46.215  26.044  0.00  0.00     0.384 C 
ATOM      3  N   UNL d          67.495  46.483  24.995  0.00  0.00     0.134 N 
ATOM      4  C1  UNL d          66.318  47.233  25.467  0.00  0.00     0.277 C 
ATOM      5  C2  UNL d          66.930  45.309  24.289  0.00  0.00     0.277 C 
ATOM      6  C   UNL d          65.183  46.949  24.370  0.00  0.00     0.032 C 
ATOM      7  C3  UNL d          65.914  45.982  23.334  0.00  0.00     0.032 C 
ATOM      8  O   UNL d          68.814  44.902  26.276  0.00  0.00    -0.186 OA
ENDBRANCH   1   2
BRANCH   1   9
ATOM      9  C6  UNL d          70.503  47.709  26.473  0.00  0.00     0.013 C 
ATOM     10  C7  UNL d          70.815  49.080  26.908  0.00  0.00     0.012 C 
ATOM     11  C8  UNL d          71.726  46.747  27.137  0.00  0.00     0.012 C 
ENDBRANCH   1   9
BRANCH   1  12
ATOM     12  N1  UNL d          69.292  46.704  28.304  0.00  0.00    -0.070 N 
ATOM     13  H13 UNL d          69.205  47.451  28.979  0.00  0.00     0.274 HD
ATOM     14  H14 UNL d          68.606  46.002  28.552  0.00  0.00     0.274 HD
ATOM     15  H15 UNL d          70.201  46.275  28.442  0.00  0.00     0.274 HD
ENDBRANCH   1  12
TORSDOF 3
ENDMDL
MODEL 3
REMARK VINA RESULT:      -5.2      1.508      1.925
REMARK  3 active torsions:
REMARK  status: ('A' for Active; 'I' for Inactive)
REMARK       I    between atoms: N_3  and  C4_6 
REMARK    1  A    between atoms: C4_6  and  C5_7 
REMARK    2  A    between atoms: C5_7  and  C6_8 
REMARK    3  A    between atoms: C5_7  and  N1_11 
ROOT
ATOM      1  C5  UNL d          65.051  45.889  24.683  0.00  0.00     0.261 C 
ENDROOT
BRANCH   1   2
ATOM      2  C4  UNL d          64.127  45.100  25.510  0.00  0.00     0.384 C 
ATOM      3  N   UNL d          64.404  43.821  26.162  0.00  0.00     0.134 N 
ATOM      4  C1  UNL d          64.847  42.768  25.231  0.00  0.00     0.277 C 
ATOM      5  C2  UNL d          63.293  43.201  26.923  0.00  0.00     0.277 C 
ATOM      6  C   UNL d          64.571  41.391  26.007  0.00  0.00     0.032 C 
ATOM      7  C3  UNL d          63.940  41.874  27.390  0.00  0.00     0.032 C 
ATOM      8  O   UNL d          62.871  45.635  25.673  0.00  0.00    -0.186 OA
ENDBRANCH   1   2
BRANCH   1   9
ATOM      9  C6  UNL d          66.499  45.942  25.080  0.00  0.00     0.013 C 
ATOM     10  C7  UNL d          67.451  45.718  23.982  0.00  0.00     0.012 C 
ATOM     11  C8  UNL d          66.884  47.472  25.692  0.00  0.00     0.012 C 
ENDBRANCH   1   9
BRANCH   1  12
ATOM     12  N1  UNL d          64.581  47.306  24.543  0.00  0.00    -0.070 N 
ATOM     13  H13 UNL d          63.572  47.371  24.549  0.00  0.00     0.274 HD
ATOM     14  H14 UNL d          64.918  47.918  25.276  0.00  0.00     0.274 HD
ATOM     15  H15 UNL d          64.905  47.705  23.668  0.00  0.00     0.274 HD
ENDBRANCH   1  12
TORSDOF 3
ENDMDL
