@<TRIPOS>MOLECULE
MOL
   31    31     1     0     0
SMALL
No Charge or Current Charge


@<TRIPOS>ATOM
      1 C1          65.0510    45.8890    24.6830 c3         1 MOL       0.000000
      2 C2          64.1270    45.1000    25.5100 c          1 MOL       0.000000
      3 N1          64.4040    43.8210    26.1620 n          1 MOL       0.000000
      4 C3          64.8470    42.7680    25.2310 c3         1 MOL       0.000000
      5 C4          63.2930    43.2010    26.9230 c3         1 MOL       0.000000
      6 C5          64.5710    41.3910    26.0070 c3         1 MOL       0.000000
      7 C6          63.9400    41.8740    27.3900 c3         1 MOL       0.000000
      8 O1          62.8710    45.6350    25.6730 o          1 MOL       0.000000
      9 C7          66.4990    45.9420    25.0800 c3         1 MOL       0.000000
     10 C8          67.4510    45.7180    23.9820 c3         1 MOL       0.000000
     11 C9          66.8840    47.4720    25.6920 c3         1 MOL       0.000000
     12 N2          64.5810    47.3060    24.5430 n4         1 MOL       0.000000
     13 H1          63.5720    47.3710    24.5490 hn         1 MOL       0.000000
     14 H2          64.9180    47.9180    25.2760 hn         1 MOL       0.000000
     15 H3          64.9050    47.7050    23.6680 hn         1 MOL       0.000000
     16 H4          65.0240    45.3360    23.7680 hx         1 MOL       0.000000
     17 H5          64.2840    42.8080    24.3220 h1         1 MOL       0.000000
     18 H6          65.8760    42.8780    24.9570 h1         1 MOL       0.000000
     19 H7          62.4430    43.0230    26.2980 h1         1 MOL       0.000000
     20 H8          62.9190    43.8080    27.7210 h1         1 MOL       0.000000
     21 H9          65.4810    40.8520    26.1680 hc         1 MOL       0.000000
     22 H10         63.9340    40.7240    25.4650 hc         1 MOL       0.000000
     23 H11         64.6890    42.0360    28.1360 hc         1 MOL       0.000000
     24 H12         63.2720    41.1790    27.8540 hc         1 MOL       0.000000
     25 H13         66.5970    45.1530    25.7960 hc         1 MOL       0.000000
     26 H14         67.3580    46.5050    23.2630 hc         1 MOL       0.000000
     27 H15         67.2400    44.7790    23.5130 hc         1 MOL       0.000000
     28 H16         68.4480    45.7070    24.3710 hc         1 MOL       0.000000
     29 H17         66.7630    48.2050    24.9220 hc         1 MOL       0.000000
     30 H18         67.8990    47.4750    26.0310 hc         1 MOL       0.000000
     31 H19         66.2340    47.7030    26.5100 hc         1 MOL       0.000000
@<TRIPOS>BOND
     1     1     9 1   
     2     1     2 1   
     3     1    16 1   
     4     2     8 2   
     5     2     3 1   
     6     3     5 1   
     7     4     6 1   
     8     4     3 1   
     9     4    17 1   
    10     4    18 1   
    11     5     7 1   
    12     5    19 1   
    13     5    20 1   
    14     6     7 1   
    15     6    21 1   
    16     6    22 1   
    17     7    23 1   
    18     7    24 1   
    19     9    11 1   
    20     9    25 1   
    21    10     9 1   
    22    10    26 1   
    23    10    27 1   
    24    10    28 1   
    25    11    29 1   
    26    11    30 1   
    27    11    31 1   
    28    12    13 1   
    29    12     1 1   
    30    12    14 1   
    31    15    12 1   
@<TRIPOS>SUBSTRUCTURE
     1 MOL         1 TEMP              0 ****  ****    0 ROOT
