@<TRIPOS>MOLECULE
MOL
   31    31     1     0     0
SMALL
No Charge or Current Charge


@<TRIPOS>ATOM
      1 C1          69.1530    47.2030    26.8970 c3         1 MOL       0.000000
      2 C2          68.4780    46.2150    26.0440 c          1 MOL       0.000000
      3 N1          67.4950    46.4830    24.9950 n          1 MOL       0.000000
      4 C3          66.3180    47.2330    25.4670 c3         1 MOL       0.000000
      5 C4          66.9300    45.3090    24.2890 c3         1 MOL       0.000000
      6 C5          65.1830    46.9490    24.3700 c3         1 MOL       0.000000
      7 C6          65.9140    45.9820    23.3340 c3         1 MOL       0.000000
      8 O1          68.8140    44.9020    26.2760 o          1 MOL       0.000000
      9 C7          70.5030    47.7090    26.4730 c3         1 MOL       0.000000
     10 C8          70.8150    49.0800    26.9080 c3         1 MOL       0.000000
     11 C9          71.7260    46.7470    27.1370 c3         1 MOL       0.000000
     12 N2          69.2920    46.7040    28.3040 n4         1 MOL       0.000000
     13 H1          69.2050    47.4510    28.9790 hn         1 MOL       0.000000
     14 H2          68.6060    46.0020    28.5520 hn         1 MOL       0.000000
     15 H3          70.2010    46.2750    28.4420 hn         1 MOL       0.000000
     16 H4          68.4900    48.0370    26.8020 hx         1 MOL       0.000000
     17 H5          66.0080    46.8820    26.4290 h1         1 MOL       0.000000
     18 H6          66.5220    48.2780    25.5750 h1         1 MOL       0.000000
     19 H7          67.6850    44.7790    23.7460 h1         1 MOL       0.000000
     20 H8          66.4990    44.5760    24.9380 h1         1 MOL       0.000000
     21 H9          64.3350    46.4690    24.8110 hc         1 MOL       0.000000
     22 H10         64.8040    47.8410    23.9170 hc         1 MOL       0.000000
     23 H11         65.2380    45.2720    22.9050 hc         1 MOL       0.000000
     24 H12         66.3410    46.4670    22.4810 hc         1 MOL       0.000000
     25 H13         70.4630    47.6800    25.4040 hc         1 MOL       0.000000
     26 H14         70.8560    49.1140    27.9770 hc         1 MOL       0.000000
     27 H15         70.0540    49.7470    26.5590 hc         1 MOL       0.000000
     28 H16         71.7610    49.3760    26.5050 hc         1 MOL       0.000000
     29 H17         71.7030    46.8270    28.2040 hc         1 MOL       0.000000
     30 H18         72.6770    47.0780    26.7750 hc         1 MOL       0.000000
     31 H19         71.5720    45.7270    26.8530 hc         1 MOL       0.000000
@<TRIPOS>BOND
     1     1    12 1   
     2     1    16 1   
     3     2     8 2   
     4     2     1 1   
     5     3     4 1   
     6     3     2 1   
     7     4    17 1   
     8     4    18 1   
     9     5     3 1   
    10     5    19 1   
    11     5    20 1   
    12     6     4 1   
    13     6    21 1   
    14     6    22 1   
    15     7     5 1   
    16     7     6 1   
    17     7    23 1   
    18     7    24 1   
    19     9     1 1   
    20     9    10 1   
    21     9    11 1   
    22     9    25 1   
    23    10    26 1   
    24    10    27 1   
    25    10    28 1   
    26    11    29 1   
    27    11    30 1   
    28    11    31 1   
    29    12    15 1   
    30    12    14 1   
    31    12    13 1   
@<TRIPOS>SUBSTRUCTURE
     1 MOL         1 TEMP              0 ****  ****    0 ROOT
