@<TRIPOS>MOLECULE
MOL
   34    35     1     0     0
SMALL
No Charge or Current Charge


@<TRIPOS>ATOM
      1 C1          21.7650   -12.9740   -11.0510 c3         1 MOL       0.000000
      2 N1          23.0360   -12.5000   -11.0030 n          1 MOL       0.000000
      3 C2          24.1170   -13.1850   -10.3120 c          1 MOL       0.000000
      4 O1          23.9710   -14.2470    -9.6810 o          1 MOL       0.000000
      5 N2          25.3980   -12.5650   -10.3430 n          1 MOL       0.000000
      6 H1          26.1850   -13.0260    -9.8660 hn         1 MOL       0.000000
      7 C3          25.6300   -11.3320   -11.0100 c          1 MOL       0.000000
      8 O2          26.7910   -10.8840   -11.0140 o          1 MOL       0.000000
      9 C4          23.2890   -11.2500   -11.6710 cc         1 MOL       0.000000
     10 C5          24.5590   -10.6430   -11.6850 cd         1 MOL       0.000000
     11 C6          24.7590    -9.2300   -12.3540 c3         1 MOL       0.000000
     12 C7          23.6790    -8.9090   -13.3850 ca         1 MOL       0.000000
     13 C8          23.7070    -9.5120   -14.7060 ca         1 MOL       0.000000
     14 C9          22.6870    -9.1820   -15.6760 ca         1 MOL       0.000000
     15 C10         21.6460    -8.2500   -15.3120 ca         1 MOL       0.000000
     16 C11         21.6260    -7.6570   -13.9990 ca         1 MOL       0.000000
     17 C12         22.6310    -7.9800   -13.0360 ca         1 MOL       0.000000
     18 O3          20.6370   -12.3440   -10.7000 os         1 MOL       0.000000
     19 C13         20.4830   -12.6020    -9.4000 c2         1 MOL       0.000000
     20 C14         21.0970   -11.7610    -8.3520 c2         1 MOL       0.000000
     21 O4          20.7150   -11.7920    -7.0280 oh         1 MOL       0.000000
     22 H2          19.6880   -11.7520    -6.9650 ho         1 MOL       0.000000
     23 H3          21.7820   -13.8570   -10.4460 h2         1 MOL       0.000000
     24 H4          21.6300   -12.9680   -12.1120 h2         1 MOL       0.000000
     25 H5          22.5090   -10.7810   -12.1580 h4         1 MOL       0.000000
     26 H6          24.7350    -8.4820   -11.5890 hc         1 MOL       0.000000
     27 H7          25.7000    -9.2440   -12.8640 hc         1 MOL       0.000000
     28 H8          24.4560   -10.1770   -14.9530 ha         1 MOL       0.000000
     29 H9          22.7030    -9.6070   -16.6160 ha         1 MOL       0.000000
     30 H10         20.9120    -8.0070   -15.9960 ha         1 MOL       0.000000
     31 H11         20.8770    -6.9910   -13.7510 ha         1 MOL       0.000000
     32 H12         22.6080    -7.5520   -12.0970 ha         1 MOL       0.000000
     33 H13         19.9160   -13.4160    -9.1170 h4         1 MOL       0.000000
     34 H14         21.8540   -11.1150    -8.6260 h4         1 MOL       0.000000
@<TRIPOS>BOND
     1     1     2 1   
     2     1    18 1   
     3     1    23 1   
     4     1    24 1   
     5     2     3 1   
     6     3     4 2   
     7     5     3 1   
     8     5     6 1   
     9     7     5 1   
    10     8     7 2   
    11     9     2 1   
    12     9    25 1   
    13    10     9 2   
    14    10     7 1   
    15    11    10 1   
    16    11    26 1   
    17    11    27 1   
    18    12    17 ar  
    19    12    11 1   
    20    13    12 ar  
    21    13    28 1   
    22    14    15 ar  
    23    14    13 ar  
    24    14    29 1   
    25    15    16 ar  
    26    15    30 1   
    27    16    17 ar  
    28    16    31 1   
    29    17    32 1   
    30    18    19 1   
    31    19    20 2   
    32    19    33 1   
    33    20    21 1   
    34    20    34 1   
    35    21    22 1   
@<TRIPOS>SUBSTRUCTURE
     1 MOL         1 TEMP              0 ****  ****    0 ROOT
