@<TRIPOS>MOLECULE
MOL
   36    37     1     0     0
SMALL
No Charge or Current Charge


@<TRIPOS>ATOM
      1 C1          25.3270   -12.0230   -11.2660 c3         1 MOL       0.000000
      2 N1          24.0450   -12.4150   -11.0540 n          1 MOL       0.000000
      3 C2          23.6910   -13.6570   -10.3830 c          1 MOL       0.000000
      4 O1          24.5250   -14.4810    -9.9700 o          1 MOL       0.000000
      5 N2          22.3030   -13.9370   -10.2360 n          1 MOL       0.000000
      6 H1          22.0190   -14.8070    -9.7620 hn         1 MOL       0.000000
      7 C3          21.2940   -13.0610   -10.7190 c          1 MOL       0.000000
      8 O2          20.1080   -13.3730   -10.5130 o          1 MOL       0.000000
      9 C4          23.0090   -11.5400   -11.5390 cc         1 MOL       0.000000
     10 C5          21.6400   -11.8360   -11.3960 cd         1 MOL       0.000000
     11 C6          20.5510   -10.8880   -12.0260 c3         1 MOL       0.000000
     12 C7          21.1610    -9.7640   -12.8620 ca         1 MOL       0.000000
     13 C8          22.0540    -8.7890   -12.2620 ca         1 MOL       0.000000
     14 C9          22.6080    -7.7210   -13.0640 ca         1 MOL       0.000000
     15 C10         22.2610    -7.6410   -14.4630 ca         1 MOL       0.000000
     16 C11         21.3740    -8.6140   -15.0510 ca         1 MOL       0.000000
     17 C12         20.8250    -9.6720   -14.2630 ca         1 MOL       0.000000
     18 O3          25.9020   -11.6800   -12.4250 os         1 MOL       0.000000
     19 C13         26.3880   -12.8170   -12.9250 c3         1 MOL       0.000000
     20 C14         26.0720   -13.2730   -14.2950 c3         1 MOL       0.000000
     21 O4          26.1380   -14.5890   -14.6950 oh         1 MOL       0.000000
     22 H2          26.3370   -15.1870   -13.8800 ho         1 MOL       0.000000
     23 H3          25.4570   -11.1680   -10.6360 h2         1 MOL       0.000000
     24 H4          25.8110   -12.9660   -11.1180 h2         1 MOL       0.000000
     25 H5          23.2800   -10.6620   -12.0090 h4         1 MOL       0.000000
     26 H6          19.9100   -11.4720   -12.6530 hc         1 MOL       0.000000
     27 H7          20.0110   -10.4360   -11.2210 hc         1 MOL       0.000000
     28 H8          22.2940    -8.8580   -11.2610 ha         1 MOL       0.000000
     29 H9          23.2430    -7.0250   -12.6420 ha         1 MOL       0.000000
     30 H10         22.6500    -6.8830   -15.0460 ha         1 MOL       0.000000
     31 H11         21.1330    -8.5460   -16.0520 ha         1 MOL       0.000000
     32 H12         20.1930   -10.3660   -14.6920 ha         1 MOL       0.000000
     33 H13         27.4540   -12.7330   -12.8770 h1         1 MOL       0.000000
     34 H14         25.8940   -13.5530   -12.3260 h1         1 MOL       0.000000
     35 H15         25.0650   -12.9610   -14.4810 h1         1 MOL       0.000000
     36 H16         26.8840   -12.8470   -14.8480 h1         1 MOL       0.000000
@<TRIPOS>BOND
     1     1     2 1   
     2     1    23 1   
     3     1    24 1   
     4     2     3 1   
     5     3     5 1   
     6     3     4 2   
     7     5     6 1   
     8     7     8 2   
     9     7     5 1   
    10     9    10 2   
    11     9     2 1   
    12     9    25 1   
    13    10     7 1   
    14    11    10 1   
    15    11    26 1   
    16    11    27 1   
    17    12    13 ar  
    18    12    11 1   
    19    13    28 1   
    20    14    13 ar  
    21    14    29 1   
    22    15    14 ar  
    23    15    30 1   
    24    16    15 ar  
    25    16    17 ar  
    26    16    31 1   
    27    17    12 ar  
    28    17    32 1   
    29    18     1 1   
    30    19    18 1   
    31    19    33 1   
    32    19    34 1   
    33    20    19 1   
    34    20    35 1   
    35    20    36 1   
    36    21    20 1   
    37    21    22 1   
@<TRIPOS>SUBSTRUCTURE
     1 MOL         1 TEMP              0 ****  ****    0 ROOT
