@<TRIPOS>MOLECULE
MOL
   36    37     1     0     0
SMALL
No Charge or Current Charge


@<TRIPOS>ATOM
      1 C1          21.2090   -10.8760   -12.0440 c3         1 MOL       0.000000
      2 N1          21.9080   -11.8450   -11.4010 n          1 MOL       0.000000
      3 C2          21.3060   -12.7670   -10.4510 c          1 MOL       0.000000
      4 O1          20.1080   -12.7340   -10.1220 o          1 MOL       0.000000
      5 N2          22.1670   -13.7290    -9.8510 n          1 MOL       0.000000
      6 H1          21.7700   -14.3990    -9.1760 hn         1 MOL       0.000000
      7 C3          23.5540   -13.7990   -10.1490 c          1 MOL       0.000000
      8 O2          24.2200   -14.6960    -9.6020 o          1 MOL       0.000000
      9 C4          23.3170   -11.9290   -11.6890 cc         1 MOL       0.000000
     10 C5          24.1590   -12.8790   -11.0800 cd         1 MOL       0.000000
     11 C6          25.7080   -12.8680   -11.3630 c3         1 MOL       0.000000
     12 C7          26.2760   -11.4550   -11.4780 ca         1 MOL       0.000000
     13 C8          26.3400   -10.5800   -10.3200 ca         1 MOL       0.000000
     14 C9          26.8630    -9.2390   -10.4510 ca         1 MOL       0.000000
     15 C10         27.3180    -8.7860   -11.7440 ca         1 MOL       0.000000
     16 C11         27.2510    -9.6600   -12.8880 ca         1 MOL       0.000000
     17 C12         26.7360   -10.9870   -12.7640 ca         1 MOL       0.000000
     18 O3          21.4690    -9.5640   -12.0870 os         1 MOL       0.000000
     19 C13         20.9870    -9.1500   -13.2610 c3         1 MOL       0.000000
     20 C14         21.5620    -7.9980   -13.9850 c3         1 MOL       0.000000
     21 O4          22.3720    -7.0530   -13.3950 oh         1 MOL       0.000000
     22 H2          22.3940    -6.2050   -13.9790 ho         1 MOL       0.000000
     23 H3          21.1990   -11.1840   -13.0690 h2         1 MOL       0.000000
     24 H4          20.3480   -10.8500   -11.4090 h2         1 MOL       0.000000
     25 H5          23.7250   -11.2670   -12.3680 h4         1 MOL       0.000000
     26 H6          26.2060   -13.3730   -10.5620 hc         1 MOL       0.000000
     27 H7          25.8690   -13.3580   -12.3000 hc         1 MOL       0.000000
     28 H8          26.0110   -10.9170    -9.4020 ha         1 MOL       0.000000
     29 H9          26.9100    -8.6140    -9.6310 ha         1 MOL       0.000000
     30 H10         27.6940    -7.8310   -11.8500 ha         1 MOL       0.000000
     31 H11         27.5790    -9.3240   -13.8070 ha         1 MOL       0.000000
     32 H12         26.6930   -11.6070   -13.5880 ha         1 MOL       0.000000
     33 H13         21.0590    -9.9860   -13.9250 h1         1 MOL       0.000000
     34 H14         20.0200    -8.7810   -12.9880 h1         1 MOL       0.000000
     35 H15         22.1350    -8.4140   -14.7870 h1         1 MOL       0.000000
     36 H16         20.6840    -7.4210   -14.1870 h1         1 MOL       0.000000
@<TRIPOS>BOND
     1     1     2 1   
     2     1    23 1   
     3     1    24 1   
     4     2     3 1   
     5     3     4 2   
     6     3     5 1   
     7     5     6 1   
     8     7     5 1   
     9     7     8 2   
    10     9     2 1   
    11     9    10 2   
    12     9    25 1   
    13    10     7 1   
    14    11    10 1   
    15    11    26 1   
    16    11    27 1   
    17    12    11 1   
    18    12    13 ar  
    19    13    28 1   
    20    14    13 ar  
    21    14    29 1   
    22    15    14 ar  
    23    15    30 1   
    24    16    17 ar  
    25    16    15 ar  
    26    16    31 1   
    27    17    12 ar  
    28    17    32 1   
    29    18     1 1   
    30    19    18 1   
    31    19    33 1   
    32    19    34 1   
    33    20    21 1   
    34    20    19 1   
    35    20    35 1   
    36    20    36 1   
    37    22    21 1   
@<TRIPOS>SUBSTRUCTURE
     1 MOL         1 TEMP              0 ****  ****    0 ROOT
