@<TRIPOS>MOLECULE
MOL
   53    54     1     0     0
SMALL
No Charge or Current Charge


@<TRIPOS>ATOM
      1 C1          29.5540    65.8380    10.3500 ca         1 MOL       0.000000
      2 C2          28.2200    65.4240    10.5990 ca         1 MOL       0.000000
      3 C3          27.2490    65.5060     9.5600 ca         1 MOL       0.000000
      4 C4          27.6450    66.0200     8.2930 ca         1 MOL       0.000000
      5 C5          28.9700    66.4380     8.0650 ca         1 MOL       0.000000
      6 C6          29.9210    66.3380     9.0980 ca         1 MOL       0.000000
      7 N1          25.9770    65.0980     9.8310 nh         1 MOL       0.000000
      8 H1          25.8070    64.6790    10.7560 hn         1 MOL       0.000000
      9 N2          27.8880    64.9620    11.8670 n          1 MOL       0.000000
     10 C7          27.6200    65.8330    13.0580 c3         1 MOL       0.000000
     11 C8          26.7410    64.8820    13.9180 c3         1 MOL       0.000000
     12 C9          27.1270    63.4460    13.5460 c3         1 MOL       0.000000
     13 C10         27.6900    63.6660    12.1690 c          1 MOL       0.000000
     14 O1          27.9080    62.7180    11.4040 o          1 MOL       0.000000
     15 C11         28.9380    66.2800    13.8190 c3         1 MOL       0.000000
     16 O2          29.4040    67.5430    13.3350 oh         1 MOL       0.000000
     17 H2          29.0430    67.7010    12.3830 ho         1 MOL       0.000000
     18 C12         26.7870    67.1070    12.7120 c3         1 MOL       0.000000
     19 N3          26.3570    67.9780    13.8030 n4         1 MOL       0.000000
     20 H3          25.3600    67.9070    13.9640 hn         1 MOL       0.000000
     21 H4          26.7880    67.6890    14.6810 hn         1 MOL       0.000000
     22 H5          26.5750    68.9550    13.6790 hn         1 MOL       0.000000
     23 C13         24.8250    65.2010     8.9240 c3         1 MOL       0.000000
     24 C14         23.7670    66.1350     9.5620 c3         1 MOL       0.000000
     25 C15         24.2470    67.5850     9.7590 c3         1 MOL       0.000000
     26 C16         24.2990    63.7670     8.6470 c3         1 MOL       0.000000
     27 C17         24.6870    62.7020     9.6880 c3         1 MOL       0.000000
     28 C18         29.3340    66.9920     6.7590 c          1 MOL       0.000000
     29 O3          30.6460    67.2440     6.5720 oh         1 MOL       0.000000
     30 O4          28.5280    67.1640     5.9170 o          1 MOL       0.000000
     31 H6          30.2590    65.7690    11.1000 ha         1 MOL       0.000000
     32 H7          26.9520    66.0870     7.5320 ha         1 MOL       0.000000
     33 H8          30.8950    66.6360     8.9300 ha         1 MOL       0.000000
     34 H9          25.7060    65.0490    13.7070 hc         1 MOL       0.000000
     35 H10         26.8990    65.0590    14.9610 hc         1 MOL       0.000000
     36 H11         27.8610    63.0480    14.2150 hc         1 MOL       0.000000
     37 H12         26.3240    62.7400    13.5940 hc         1 MOL       0.000000
     38 H13         29.6990    65.5430    13.6640 h1         1 MOL       0.000000
     39 H14         28.7150    66.3750    14.8610 h1         1 MOL       0.000000
     40 H15         25.9040    66.7790    12.2040 hx         1 MOL       0.000000
     41 H16         27.4610    67.7130    12.1440 hx         1 MOL       0.000000
     42 H17         25.0890    65.6340     7.9820 h1         1 MOL       0.000000
     43 H18         23.5000    65.7370    10.5180 hc         1 MOL       0.000000
     44 H19         22.9390    66.1730     8.8850 hc         1 MOL       0.000000
     45 H20         25.0780    67.5970    10.4330 hc         1 MOL       0.000000
     46 H21         23.4500    68.1720    10.1650 hc         1 MOL       0.000000
     47 H22         24.5460    67.9930     8.8160 hc         1 MOL       0.000000
     48 H23         24.6810    63.4540     7.6980 hc         1 MOL       0.000000
     49 H24         23.2320    63.8350     8.6830 hc         1 MOL       0.000000
     50 H25         25.7510    62.5860     9.7000 hc         1 MOL       0.000000
     51 H26         24.2300    61.7690     9.4320 hc         1 MOL       0.000000
     52 H27         24.3510    63.0100    10.6560 hc         1 MOL       0.000000
     53 H28         31.2560    67.0940     7.2680 ho         1 MOL       0.000000
@<TRIPOS>BOND
     1     1     2 ar  
     2     1    31 1   
     3     2     9 1   
     4     3     7 1   
     5     3     2 ar  
     6     4     3 ar  
     7     4    32 1   
     8     5     4 ar  
     9     5     6 ar  
    10     6     1 ar  
    11     6    33 1   
    12     7     8 1   
    13     9    13 1   
    14     9    10 1   
    15    10    18 1   
    16    10    15 1   
    17    10    11 1   
    18    11    34 1   
    19    11    35 1   
    20    12    11 1   
    21    12    36 1   
    22    12    37 1   
    23    13    12 1   
    24    14    13 2   
    25    15    38 1   
    26    15    39 1   
    27    16    15 1   
    28    17    16 1   
    29    18    19 1   
    30    18    40 1   
    31    18    41 1   
    32    19    20 1   
    33    19    21 1   
    34    22    19 1   
    35    23    24 1   
    36    23     7 1   
    37    23    42 1   
    38    24    25 1   
    39    24    43 1   
    40    24    44 1   
    41    25    45 1   
    42    25    46 1   
    43    25    47 1   
    44    26    23 1   
    45    26    27 1   
    46    26    48 1   
    47    26    49 1   
    48    27    50 1   
    49    27    51 1   
    50    27    52 1   
    51    28     5 1   
    52    29    28 1   
    53    29    53 1   
    54    30    28 2   
@<TRIPOS>SUBSTRUCTURE
     1 MOL         1 TEMP              0 ****  ****    0 ROOT
