MODEL 1
REMARK VINA RESULT:      -6.7      0.000      0.000
REMARK  9 active torsions:
REMARK  status: ('A' for Active; 'I' for Inactive)
REMARK    1  A    between atoms: C1_2  and  N1_17 
REMARK    2  A    between atoms: C4_5  and  C6_7 
REMARK    3  A    between atoms: N_10  and  C7_12 
REMARK    4  A    between atoms: C7_12  and  C8_13 
REMARK    5  A    between atoms: C7_12  and  C9_14 
REMARK    6  A    between atoms: C12_18  and  C16_23 
REMARK    7  A    between atoms: C12_18  and  C17_26 
REMARK    8  A    between atoms: C16_23  and  O3_24 
REMARK    9  A    between atoms: C17_26  and  N2_27 
ROOT
ATOM      1  C   UNL d          26.792  65.851   7.697  0.00  0.00     0.033 A 
ATOM      2  C1  UNL d          26.655  66.006   9.100  0.00  0.00     0.064 A 
ATOM      3  C2  UNL d          27.766  66.451   9.874  0.00  0.00     0.056 A 
ATOM      4  C3  UNL d          28.998  66.714   9.212  0.00  0.00     0.050 A 
ATOM      5  C4  UNL d          29.122  66.544   7.820  0.00  0.00     0.043 A 
ATOM      6  C5  UNL d          28.011  66.118   7.068  0.00  0.00     0.021 A 
ATOM      7  N   UNL d          27.601  66.591  11.220  0.00  0.00    -0.383 N 
ATOM      8  H3  UNL d          26.653  66.440  11.593  0.00  0.00     0.160 HD
ENDROOT
BRANCH   2   9
ATOM      9  N1  UNL d          25.435  65.700   9.692  0.00  0.00    -0.302 N 
ATOM     10  C12 UNL d          25.026  64.337  10.166  0.00  0.00     0.085 C 
ATOM     11  C13 UNL d          23.953  64.713  11.227  0.00  0.00     0.044 C 
ATOM     12  C14 UNL d          23.363  66.067  10.817  0.00  0.00     0.106 C 
ATOM     13  C15 UNL d          24.490  66.612   9.984  0.00  0.00     0.225 C 
ATOM     14  O2  UNL d          24.523  67.801   9.646  0.00  0.00    -0.273 OA
BRANCH  10  15
ATOM     15  C16 UNL d          24.434  63.423   9.013  0.00  0.00     0.197 C 
BRANCH  15  16
ATOM     16  O3  UNL d          24.454  62.044   9.394  0.00  0.00    -0.398 OA
ATOM     17  H21 UNL d          23.558  61.605   9.143  0.00  0.00     0.209 HD
ENDBRANCH  15  16
ENDBRANCH  10  15
BRANCH  10  18
ATOM     18  C17 UNL d          26.180  63.562  10.876  0.00  0.00     0.263 C 
BRANCH  18  19
ATOM     19  N2  UNL d          25.967  63.090  12.241  0.00  0.00    -0.077 N 
ATOM     20  H24 UNL d          25.368  63.718  12.761  0.00  0.00     0.274 HD
ATOM     21  H25 UNL d          25.476  62.196  12.238  0.00  0.00     0.274 HD
ATOM     22  H26 UNL d          26.809  62.958  12.781  0.00  0.00     0.274 HD
ENDBRANCH  18  19
ENDBRANCH  10  18
ENDBRANCH   2   9
BRANCH   7  23
ATOM     23  C7  UNL d          28.651  66.938  12.187  0.00  0.00     0.081 C 
BRANCH  23  24
ATOM     24  C8  UNL d          28.524  66.009  13.419  0.00  0.00     0.020 C 
ATOM     25  C10 UNL d          28.942  64.551  13.151  0.00  0.00     0.007 C 
ENDBRANCH  23  24
BRANCH  23  26
ATOM     26  C9  UNL d          28.511  68.446  12.531  0.00  0.00     0.020 C 
ATOM     27  C11 UNL d          29.642  69.042  13.388  0.00  0.00     0.007 C 
ENDBRANCH  23  26
ENDBRANCH   7  23
BRANCH   5  28
ATOM     28  C6  UNL d          30.414  66.795   7.177  0.00  0.00     0.209 C 
ATOM     29  O   UNL d          31.474  66.885   8.006  0.00  0.00    -0.644 OA
ATOM     30  O1  UNL d          30.515  66.869   6.006  0.00  0.00    -0.644 OA
ENDBRANCH   5  28
TORSDOF 9
ENDMDL
MODEL 2
REMARK VINA RESULT:      -6.5      2.025      4.857
REMARK  9 active torsions:
REMARK  status: ('A' for Active; 'I' for Inactive)
REMARK    1  A    between atoms: C1_2  and  N1_17 
REMARK    2  A    between atoms: C4_5  and  C6_7 
REMARK    3  A    between atoms: N_10  and  C7_12 
REMARK    4  A    between atoms: C7_12  and  C8_13 
REMARK    5  A    between atoms: C7_12  and  C9_14 
REMARK    6  A    between atoms: C12_18  and  C16_23 
REMARK    7  A    between atoms: C12_18  and  C17_26 
REMARK    8  A    between atoms: C16_23  and  O3_24 
REMARK    9  A    between atoms: C17_26  and  N2_27 
ROOT
ATOM      1  C   UNL d          29.554  65.838  10.350  0.00  0.00     0.033 A 
ATOM      2  C1  UNL d          28.220  65.424  10.599  0.00  0.00     0.064 A 
ATOM      3  C2  UNL d          27.249  65.506   9.560  0.00  0.00     0.056 A 
ATOM      4  C3  UNL d          27.645  66.020   8.293  0.00  0.00     0.050 A 
ATOM      5  C4  UNL d          28.970  66.438   8.065  0.00  0.00     0.043 A 
ATOM      6  C5  UNL d          29.921  66.338   9.098  0.00  0.00     0.021 A 
ATOM      7  N   UNL d          25.977  65.098   9.831  0.00  0.00    -0.383 N 
ATOM      8  H3  UNL d          25.807  64.679  10.756  0.00  0.00     0.160 HD
ENDROOT
BRANCH   2   9
ATOM      9  N1  UNL d          27.888  64.962  11.867  0.00  0.00    -0.302 N 
ATOM     10  C12 UNL d          27.620  65.833  13.058  0.00  0.00     0.085 C 
ATOM     11  C13 UNL d          26.741  64.882  13.918  0.00  0.00     0.044 C 
ATOM     12  C14 UNL d          27.127  63.446  13.546  0.00  0.00     0.106 C 
ATOM     13  C15 UNL d          27.690  63.666  12.169  0.00  0.00     0.225 C 
ATOM     14  O2  UNL d          27.908  62.718  11.404  0.00  0.00    -0.273 OA
BRANCH  10  15
ATOM     15  C16 UNL d          28.938  66.280  13.819  0.00  0.00     0.197 C 
BRANCH  15  16
ATOM     16  O3  UNL d          29.404  67.543  13.335  0.00  0.00    -0.398 OA
ATOM     17  H21 UNL d          29.043  67.701  12.383  0.00  0.00     0.209 HD
ENDBRANCH  15  16
ENDBRANCH  10  15
BRANCH  10  18
ATOM     18  C17 UNL d          26.787  67.107  12.712  0.00  0.00     0.263 C 
BRANCH  18  19
ATOM     19  N2  UNL d          26.357  67.978  13.803  0.00  0.00    -0.077 N 
ATOM     20  H24 UNL d          25.360  67.907  13.964  0.00  0.00     0.274 HD
ATOM     21  H25 UNL d          26.788  67.689  14.681  0.00  0.00     0.274 HD
ATOM     22  H26 UNL d          26.575  68.955  13.679  0.00  0.00     0.274 HD
ENDBRANCH  18  19
ENDBRANCH  10  18
ENDBRANCH   2   9
BRANCH   7  23
ATOM     23  C7  UNL d          24.825  65.201   8.924  0.00  0.00     0.081 C 
BRANCH  23  24
ATOM     24  C8  UNL d          23.767  66.135   9.562  0.00  0.00     0.020 C 
ATOM     25  C10 UNL d          24.247  67.585   9.759  0.00  0.00     0.007 C 
ENDBRANCH  23  24
BRANCH  23  26
ATOM     26  C9  UNL d          24.299  63.767   8.647  0.00  0.00     0.020 C 
ATOM     27  C11 UNL d          24.687  62.702   9.688  0.00  0.00     0.007 C 
ENDBRANCH  23  26
ENDBRANCH   7  23
BRANCH   5  28
ATOM     28  C6  UNL d          29.334  66.992   6.759  0.00  0.00     0.209 C 
ATOM     29  O   UNL d          30.646  67.244   6.572  0.00  0.00    -0.644 OA
ATOM     30  O1  UNL d          28.528  67.164   5.917  0.00  0.00    -0.644 OA
ENDBRANCH   5  28
TORSDOF 9
ENDMDL
MODEL 3
REMARK VINA RESULT:      -6.2      1.923      4.277
REMARK  9 active torsions:
REMARK  status: ('A' for Active; 'I' for Inactive)
REMARK    1  A    between atoms: C1_2  and  N1_17 
REMARK    2  A    between atoms: C4_5  and  C6_7 
REMARK    3  A    between atoms: N_10  and  C7_12 
REMARK    4  A    between atoms: C7_12  and  C8_13 
REMARK    5  A    between atoms: C7_12  and  C9_14 
REMARK    6  A    between atoms: C12_18  and  C16_23 
REMARK    7  A    between atoms: C12_18  and  C17_26 
REMARK    8  A    between atoms: C16_23  and  O3_24 
REMARK    9  A    between atoms: C17_26  and  N2_27 
ROOT
ATOM      1  C   UNL d          29.185  66.787  10.350  0.00  0.00     0.033 A 
ATOM      2  C1  UNL d          27.815  66.527  10.610  0.00  0.00     0.064 A 
ATOM      3  C2  UNL d          26.966  66.087   9.553  0.00  0.00     0.056 A 
ATOM      4  C3  UNL d          27.520  65.935   8.251  0.00  0.00     0.050 A 
ATOM      5  C4  UNL d          28.879  66.208   8.006  0.00  0.00     0.043 A 
ATOM      6  C5  UNL d          29.707  66.628   9.063  0.00  0.00     0.021 A 
ATOM      7  N   UNL d          25.655  65.844   9.836  0.00  0.00    -0.383 N 
ATOM      8  H3  UNL d          25.368  65.920  10.822  0.00  0.00     0.160 HD
ENDROOT
BRANCH   2   9
ATOM      9  N1  UNL d          27.327  66.727  11.896  0.00  0.00    -0.302 N 
ATOM     10  C12 UNL d          27.397  65.724  13.009  0.00  0.00     0.085 C 
ATOM     11  C13 UNL d          27.309  66.661  14.246  0.00  0.00     0.044 C 
ATOM     12  C14 UNL d          26.547  67.918  13.811  0.00  0.00     0.106 C 
ATOM     13  C15 UNL d          26.794  67.884  12.328  0.00  0.00     0.225 C 
ATOM     14  O2  UNL d          26.546  68.862  11.613  0.00  0.00    -0.273 OA
BRANCH  10  15
ATOM     15  C16 UNL d          26.216  64.666  12.975  0.00  0.00     0.197 C 
BRANCH  15  16
ATOM     16  O3  UNL d          25.972  64.131  14.279  0.00  0.00    -0.398 OA
ATOM     17  H21 UNL d          25.232  64.678  14.742  0.00  0.00     0.209 HD
ENDBRANCH  15  16
ENDBRANCH  10  15
BRANCH  10  18
ATOM     18  C17 UNL d          28.755  64.956  13.059  0.00  0.00     0.263 C 
BRANCH  18  19
ATOM     19  N2  UNL d          28.743  63.540  13.419  0.00  0.00    -0.077 N 
ATOM     20  H24 UNL d          28.185  62.998  12.773  0.00  0.00     0.274 HD
ATOM     21  H25 UNL d          29.682  63.147  13.354  0.00  0.00     0.274 HD
ATOM     22  H26 UNL d          28.408  63.342  14.350  0.00  0.00     0.274 HD
ENDBRANCH  18  19
ENDBRANCH  10  18
ENDBRANCH   2   9
BRANCH   7  23
ATOM     23  C7  UNL d          24.614  65.485   8.864  0.00  0.00     0.081 C 
BRANCH  23  24
ATOM     24  C8  UNL d          23.284  66.157   9.282  0.00  0.00     0.020 C 
ATOM     25  C10 UNL d          23.462  67.510   9.996  0.00  0.00     0.007 C 
ENDBRANCH  23  24
BRANCH  23  26
ATOM     26  C9  UNL d          24.530  63.936   8.797  0.00  0.00     0.020 C 
ATOM     27  C11 UNL d          24.583  63.206  10.151  0.00  0.00     0.007 C 
ENDBRANCH  23  26
ENDBRANCH   7  23
BRANCH   5  28
ATOM     28  C6  UNL d          29.406  66.071   6.647  0.00  0.00     0.209 C 
ATOM     29  O   UNL d          30.175  67.089   6.209  0.00  0.00    -0.644 OA
ATOM     30  O1  UNL d          29.199  65.108   6.001  0.00  0.00    -0.644 OA
ENDBRANCH   5  28
TORSDOF 9
ENDMDL
