@<TRIPOS>MOLECULE
MOL
   53    54     1     0     0
SMALL
No Charge or Current Charge


@<TRIPOS>ATOM
      1 C1          29.1850    66.7870    10.3500 ca         1 MOL       0.000000
      2 C2          27.8150    66.5270    10.6100 ca         1 MOL       0.000000
      3 C3          26.9660    66.0870     9.5530 ca         1 MOL       0.000000
      4 C4          27.5200    65.9350     8.2510 ca         1 MOL       0.000000
      5 C5          28.8790    66.2080     8.0060 ca         1 MOL       0.000000
      6 C6          29.7070    66.6280     9.0630 ca         1 MOL       0.000000
      7 N1          25.6550    65.8440     9.8360 nh         1 MOL       0.000000
      8 H1          25.3680    65.9200    10.8220 hn         1 MOL       0.000000
      9 N2          27.3270    66.7270    11.8960 n          1 MOL       0.000000
     10 C7          27.3970    65.7240    13.0090 c3         1 MOL       0.000000
     11 C8          27.3090    66.6610    14.2460 c3         1 MOL       0.000000
     12 C9          26.5470    67.9180    13.8110 c3         1 MOL       0.000000
     13 C10         26.7940    67.8840    12.3280 c          1 MOL       0.000000
     14 O1          26.5460    68.8620    11.6130 o          1 MOL       0.000000
     15 C11         26.2160    64.6660    12.9750 c3         1 MOL       0.000000
     16 O2          25.9720    64.1310    14.2790 oh         1 MOL       0.000000
     17 H2          25.2320    64.6780    14.7420 ho         1 MOL       0.000000
     18 C12         28.7550    64.9560    13.0590 c3         1 MOL       0.000000
     19 N3          28.7430    63.5400    13.4190 n4         1 MOL       0.000000
     20 H3          28.1850    62.9980    12.7730 hn         1 MOL       0.000000
     21 H4          29.6820    63.1470    13.3540 hn         1 MOL       0.000000
     22 H5          28.4080    63.3420    14.3500 hn         1 MOL       0.000000
     23 C13         24.6140    65.4850     8.8640 c3         1 MOL       0.000000
     24 C14         23.2840    66.1570     9.2820 c3         1 MOL       0.000000
     25 C15         23.4620    67.5100     9.9960 c3         1 MOL       0.000000
     26 C16         24.5300    63.9360     8.7970 c3         1 MOL       0.000000
     27 C17         24.5830    63.2060    10.1510 c3         1 MOL       0.000000
     28 C18         29.4060    66.0710     6.6470 c          1 MOL       0.000000
     29 O3          30.1750    67.0890     6.2090 oh         1 MOL       0.000000
     30 O4          29.1990    65.1080     6.0010 o          1 MOL       0.000000
     31 H6          29.8020    67.0960    11.1180 ha         1 MOL       0.000000
     32 H7          26.9170    65.6200     7.4750 ha         1 MOL       0.000000
     33 H8          30.7060    66.8200     8.8870 ha         1 MOL       0.000000
     34 H9          28.2920    66.9240    14.5770 hc         1 MOL       0.000000
     35 H10         26.8070    66.1740    15.0560 hc         1 MOL       0.000000
     36 H11         25.5040    67.8480    14.0400 hc         1 MOL       0.000000
     37 H12         26.8580    68.8200    14.2960 hc         1 MOL       0.000000
     38 H13         26.4800    63.8680    12.3130 h1         1 MOL       0.000000
     39 H14         25.3280    65.1560    12.6350 h1         1 MOL       0.000000
     40 H15         29.3750    65.4580    13.7720 hx         1 MOL       0.000000
     41 H16         29.0980    64.9650    12.0460 hx         1 MOL       0.000000
     42 H17         24.8410    65.8380     7.8800 h1         1 MOL       0.000000
     43 H18         22.7650    65.4940     9.9420 hc         1 MOL       0.000000
     44 H19         22.7400    66.3520     8.3820 hc         1 MOL       0.000000
     45 H20         24.0040    67.3640    10.9070 hc         1 MOL       0.000000
     46 H21         22.5010    67.9270    10.2160 hc         1 MOL       0.000000
     47 H22         24.0040    68.1800     9.3620 hc         1 MOL       0.000000
     48 H23         25.3490    63.5880     8.2030 hc         1 MOL       0.000000
     49 H24         23.5690    63.7140     8.3830 hc         1 MOL       0.000000
     50 H25         25.5270    63.3910    10.6190 hc         1 MOL       0.000000
     51 H26         24.4620    62.1540     9.9940 hc         1 MOL       0.000000
     52 H27         23.7960    63.5660    10.7810 hc         1 MOL       0.000000
     53 H28         30.3150    67.8380     6.7540 ho         1 MOL       0.000000
@<TRIPOS>BOND
     1     1     2 ar  
     2     1    31 1   
     3     2     9 1   
     4     3     7 1   
     5     3     2 ar  
     6     4     3 ar  
     7     4    32 1   
     8     5     4 ar  
     9     5     6 ar  
    10     6     1 ar  
    11     6    33 1   
    12     7     8 1   
    13     9    13 1   
    14     9    10 1   
    15    10    15 1   
    16    10    18 1   
    17    10    11 1   
    18    11    34 1   
    19    11    35 1   
    20    12    11 1   
    21    12    36 1   
    22    12    37 1   
    23    13    12 1   
    24    14    13 2   
    25    15    16 1   
    26    15    38 1   
    27    15    39 1   
    28    16    17 1   
    29    18    19 1   
    30    18    40 1   
    31    18    41 1   
    32    19    22 1   
    33    20    19 1   
    34    21    19 1   
    35    23    24 1   
    36    23     7 1   
    37    23    42 1   
    38    24    25 1   
    39    24    43 1   
    40    24    44 1   
    41    25    45 1   
    42    25    46 1   
    43    25    47 1   
    44    26    23 1   
    45    26    27 1   
    46    26    48 1   
    47    26    49 1   
    48    27    50 1   
    49    27    51 1   
    50    27    52 1   
    51    28     5 1   
    52    29    28 1   
    53    29    53 1   
    54    30    28 2   
@<TRIPOS>SUBSTRUCTURE
     1 MOL         1 TEMP              0 ****  ****    0 ROOT
