@<TRIPOS>MOLECULE
MOL
   53    54     1     0     0
SMALL
No Charge or Current Charge


@<TRIPOS>ATOM
      1 C1          26.7920    65.8510     7.6970 ca         1 MOL       0.000000
      2 C2          26.6550    66.0060     9.1000 ca         1 MOL       0.000000
      3 C3          27.7660    66.4510     9.8740 ca         1 MOL       0.000000
      4 C4          28.9980    66.7140     9.2120 ca         1 MOL       0.000000
      5 C5          29.1220    66.5440     7.8200 ca         1 MOL       0.000000
      6 C6          28.0110    66.1180     7.0680 ca         1 MOL       0.000000
      7 N1          27.6010    66.5910    11.2200 nh         1 MOL       0.000000
      8 H1          26.6530    66.4400    11.5930 hn         1 MOL       0.000000
      9 N2          25.4350    65.7000     9.6920 n          1 MOL       0.000000
     10 C7          25.0260    64.3370    10.1660 c3         1 MOL       0.000000
     11 C8          23.9530    64.7130    11.2270 c3         1 MOL       0.000000
     12 C9          23.3630    66.0670    10.8170 c3         1 MOL       0.000000
     13 C10         24.4900    66.6120     9.9840 c          1 MOL       0.000000
     14 O1          24.5230    67.8010     9.6460 o          1 MOL       0.000000
     15 C11         24.4340    63.4230     9.0130 c3         1 MOL       0.000000
     16 O2          24.4540    62.0440     9.3940 oh         1 MOL       0.000000
     17 H2          23.5580    61.6050     9.1430 ho         1 MOL       0.000000
     18 C12         26.1800    63.5620    10.8760 c3         1 MOL       0.000000
     19 N3          25.9670    63.0900    12.2410 n4         1 MOL       0.000000
     20 H3          25.3680    63.7180    12.7610 hn         1 MOL       0.000000
     21 H4          25.4760    62.1960    12.2380 hn         1 MOL       0.000000
     22 H5          26.8090    62.9580    12.7810 hn         1 MOL       0.000000
     23 C13         28.6510    66.9380    12.1870 c3         1 MOL       0.000000
     24 C14         28.5240    66.0090    13.4190 c3         1 MOL       0.000000
     25 C15         28.9420    64.5510    13.1510 c3         1 MOL       0.000000
     26 C16         28.5110    68.4460    12.5310 c3         1 MOL       0.000000
     27 C17         29.6420    69.0420    13.3880 c3         1 MOL       0.000000
     28 C18         30.4140    66.7950     7.1770 c          1 MOL       0.000000
     29 O3          31.4740    66.8850     8.0060 oh         1 MOL       0.000000
     30 O4          30.5150    66.8690     6.0060 o          1 MOL       0.000000
     31 H6          25.9840    65.5380     7.1360 ha         1 MOL       0.000000
     32 H7          29.8120    67.0340     9.7600 ha         1 MOL       0.000000
     33 H8          28.0970    66.0020     6.0460 ha         1 MOL       0.000000
     34 H9          24.4050    64.7880    12.1940 hc         1 MOL       0.000000
     35 H10         23.1890    63.9650    11.2750 hc         1 MOL       0.000000
     36 H11         22.4670    65.9510    10.2430 hc         1 MOL       0.000000
     37 H12         23.0680    66.6920    11.6340 hc         1 MOL       0.000000
     38 H13         23.4240    63.7180     8.8160 h1         1 MOL       0.000000
     39 H14         25.0360    63.5440     8.1370 h1         1 MOL       0.000000
     40 H15         27.0310    64.2110    10.8960 hx         1 MOL       0.000000
     41 H16         26.2840    62.6650    10.3020 hx         1 MOL       0.000000
     42 H17         29.6330    66.7890    11.7900 h1         1 MOL       0.000000
     43 H18         27.5030    66.0130    13.7390 hc         1 MOL       0.000000
     44 H19         29.1910    66.3900    14.1640 hc         1 MOL       0.000000
     45 H20         28.2990    64.1260    12.4090 hc         1 MOL       0.000000
     46 H21         28.8640    63.9860    14.0560 hc         1 MOL       0.000000
     47 H22         29.9530    64.5280    12.8020 hc         1 MOL       0.000000
     48 H23         27.5910    68.5780    13.0620 hc         1 MOL       0.000000
     49 H24         28.5500    68.9640    11.5950 hc         1 MOL       0.000000
     50 H25         29.6560    68.5620    14.3440 hc         1 MOL       0.000000
     51 H26         29.4760    70.0910    13.5180 hc         1 MOL       0.000000
     52 H27         30.5800    68.8870    12.8980 hc         1 MOL       0.000000
     53 H28         31.3510    66.8210     8.9330 ho         1 MOL       0.000000
@<TRIPOS>BOND
     1     1     2 ar  
     2     1    31 1   
     3     2     9 1   
     4     2     3 ar  
     5     3     7 1   
     6     4     3 ar  
     7     4    32 1   
     8     5     4 ar  
     9     6     1 ar  
    10     6     5 ar  
    11     6    33 1   
    12     7     8 1   
    13     7    23 1   
    14     9    13 1   
    15     9    10 1   
    16    10    15 1   
    17    10    18 1   
    18    10    11 1   
    19    11    34 1   
    20    11    35 1   
    21    12    11 1   
    22    12    36 1   
    23    12    37 1   
    24    13    12 1   
    25    14    13 2   
    26    15    16 1   
    27    15    38 1   
    28    15    39 1   
    29    17    16 1   
    30    18    19 1   
    31    18    40 1   
    32    18    41 1   
    33    19    20 1   
    34    19    22 1   
    35    21    19 1   
    36    23    26 1   
    37    23    24 1   
    38    23    42 1   
    39    24    43 1   
    40    24    44 1   
    41    25    24 1   
    42    25    45 1   
    43    25    46 1   
    44    25    47 1   
    45    26    27 1   
    46    26    48 1   
    47    26    49 1   
    48    27    50 1   
    49    27    51 1   
    50    27    52 1   
    51    28     5 1   
    52    28    29 1   
    53    29    53 1   
    54    30    28 2   
@<TRIPOS>SUBSTRUCTURE
     1 MOL         1 TEMP              0 ****  ****    0 ROOT
