@<TRIPOS>MOLECULE
MOL
   38    40     1     0     0
SMALL
No Charge or Current Charge


@<TRIPOS>ATOM
      1 C1           8.3350    35.2670    17.3910 cc         1 MOL       0.000000
      2 C2           9.7060    35.4450    17.8070 cc         1 MOL       0.000000
      3 C3          10.8000    35.8550    16.9960 cd         1 MOL       0.000000
      4 C4          10.5240    36.0780    15.6250 cd         1 MOL       0.000000
      5 C5          11.5400    36.3880    14.7290 cc         1 MOL       0.000000
      6 C6          11.3380    36.5230    13.3080 cc         1 MOL       0.000000
      7 C7           9.9310    36.2720    12.9490 cc         1 MOL       0.000000
      8 C8           8.8820    35.9470    13.7820 cd         1 MOL       0.000000
      9 C9           9.1860    35.8630    15.1100 cd         1 MOL       0.000000
     10 C10          8.1940    35.4840    15.9770 cc         1 MOL       0.000000
     11 C11         12.3680    36.8470    12.3310 c2         1 MOL       0.000000
     12 O1          13.4280    37.2900    12.7590 o          1 MOL       0.000000
     13 N1          11.9660    36.8350    11.0200 n          1 MOL       0.000000
     14 H1          11.0070    36.5320    10.7970 hn         1 MOL       0.000000
     15 C12         12.8010    37.2140     9.9900 ca         1 MOL       0.000000
     16 C13         12.6350    38.5580     9.6400 ca         1 MOL       0.000000
     17 C14         13.3460    39.0800     8.5590 ca         1 MOL       0.000000
     18 C15         14.2820    38.2300     7.8920 ca         1 MOL       0.000000
     19 C16         14.5290    36.9170     8.2880 ca         1 MOL       0.000000
     20 C17         13.7820    36.4020     9.3590 ca         1 MOL       0.000000
     21 C18          7.2080    34.9060    18.3050 c2         1 MOL       0.000000
     22 N2           7.0870    33.5750    18.5640 nh         1 MOL       0.000000
     23 H2           7.7580    32.9080    18.1550 hn         1 MOL       0.000000
     24 H3           6.3250    33.2350    19.1670 hn         1 MOL       0.000000
     25 N3           6.3710    35.8700    18.7980 nh         1 MOL       0.000000
     26 H4           6.4820    36.8500    18.4990 hn         1 MOL       0.000000
     27 H5           5.6300    35.6170    19.4670 hn         1 MOL       0.000000
     28 H6           9.9150    35.2540    18.7990 ha         1 MOL       0.000000
     29 H7          11.7460    35.9830    17.3870 ha         1 MOL       0.000000
     30 H8          12.4920    36.5290    15.1010 ha         1 MOL       0.000000
     31 H9           9.7020    36.3490    11.9460 ha         1 MOL       0.000000
     32 H10          7.9290    35.7780    13.4250 ha         1 MOL       0.000000
     33 H11          7.2540    35.3400    15.5750 ha         1 MOL       0.000000
     34 H12         11.9910    39.1590    10.1780 ha         1 MOL       0.000000
     35 H13         13.2000    40.0540     8.2490 ha         1 MOL       0.000000
     36 H14         14.7980    38.6060     7.0810 ha         1 MOL       0.000000
     37 H15         15.2390    36.3410     7.8090 ha         1 MOL       0.000000
     38 H16         13.9450    35.4370     9.6870 ha         1 MOL       0.000000
@<TRIPOS>BOND
     1     1     2 1   
     2     1    21 2   
     3     2    28 1   
     4     3     2 2   
     5     3    29 1   
     6     4     3 1   
     7     5     4 2   
     8     5    30 1   
     9     6     5 1   
    10     7     6 1   
    11     7     8 2   
    12     7    31 1   
    13     8     9 1   
    14     8    32 1   
    15     9     4 1   
    16     9    10 2   
    17    10     1 1   
    18    10    33 1   
    19    11    12 1   
    20    11     6 2   
    21    13    11 1   
    22    14    13 1   
    23    15    13 1   
    24    16    15 ar  
    25    16    34 1   
    26    17    16 ar  
    27    17    35 1   
    28    18    19 ar  
    29    18    17 ar  
    30    18    36 1   
    31    19    20 ar  
    32    19    37 1   
    33    20    15 ar  
    34    20    38 1   
    35    21    22 1   
    36    21    25 1   
    37    22    24 1   
    38    23    22 1   
    39    25    27 1   
    40    26    25 1   
@<TRIPOS>SUBSTRUCTURE
     1 MOL         1 TEMP              0 ****  ****    0 ROOT
