@<TRIPOS>MOLECULE
MOL
   38    40     1     0     0
SMALL
No Charge or Current Charge


@<TRIPOS>ATOM
      1 C1          14.8960    37.9730    11.6310 cc         1 MOL       0.000000
      2 C2          14.8690    38.3870    13.0130 cc         1 MOL       0.000000
      3 C3          13.8900    38.0470    13.9890 cd         1 MOL       0.000000
      4 C4          12.8080    37.2470    13.5490 cd         1 MOL       0.000000
      5 C5          11.7510    36.9390    14.3970 cc         1 MOL       0.000000
      6 C6          10.5740    36.2210    13.9790 cc         1 MOL       0.000000
      7 C7          10.6440    35.8820    12.5470 cc         1 MOL       0.000000
      8 C8          11.6510    36.1690    11.6490 cd         1 MOL       0.000000
      9 C9          12.7240    36.8380    12.1600 cd         1 MOL       0.000000
     10 C10         13.7270    37.2030    11.3000 cc         1 MOL       0.000000
     11 C11          9.4430    35.8750    14.8290 c2         1 MOL       0.000000
     12 O1           8.3450    35.7850    14.2930 o          1 MOL       0.000000
     13 N1           9.6850    35.9050    16.1790 n          1 MOL       0.000000
     14 H1          10.6430    36.0900    16.5080 hn         1 MOL       0.000000
     15 C12          8.6900    35.6950    17.1100 ca         1 MOL       0.000000
     16 C13          8.5720    34.3470    17.4650 ca         1 MOL       0.000000
     17 C14          7.5560    33.9520    18.3350 ca         1 MOL       0.000000
     18 C15          6.7130    34.9630    18.8940 ca         1 MOL       0.000000
     19 C16          6.8770    36.3200    18.6250 ca         1 MOL       0.000000
     20 C17          7.8870    36.6940    17.7240 ca         1 MOL       0.000000
     21 C18         15.9910    38.2990    10.6660 c2         1 MOL       0.000000
     22 N2          17.1050    38.8430    11.2290 nh         1 MOL       0.000000
     23 H2          17.1500    38.9810    12.2490 hn         1 MOL       0.000000
     24 H3          17.9000    39.1180    10.6360 hn         1 MOL       0.000000
     25 N3          15.8310    38.0750     9.3250 nh         1 MOL       0.000000
     26 H4          14.8890    37.9270     8.9370 hn         1 MOL       0.000000
     27 H5          16.6530    38.0550     8.7040 hn         1 MOL       0.000000
     28 H6          15.6420    38.9940    13.3270 ha         1 MOL       0.000000
     29 H7          13.9650    38.3670    14.9670 ha         1 MOL       0.000000
     30 H8          11.8130    37.2420    15.3820 ha         1 MOL       0.000000
     31 H9           9.8360    35.3640    12.1670 ha         1 MOL       0.000000
     32 H10         11.5960    35.8950    10.6550 ha         1 MOL       0.000000
     33 H11         13.6340    36.8950    10.3190 ha         1 MOL       0.000000
     34 H12          9.2320    33.6500    17.0860 ha         1 MOL       0.000000
     35 H13          7.4160    32.9570    18.5690 ha         1 MOL       0.000000
     36 H14          5.9490    34.6740    19.5250 ha         1 MOL       0.000000
     37 H15          6.2750    37.0280    19.0740 ha         1 MOL       0.000000
     38 H16          8.0460    37.6910    17.5090 ha         1 MOL       0.000000
@<TRIPOS>BOND
     1     1     2 1   
     2     2     3 2   
     3     2    28 1   
     4     3    29 1   
     5     4     3 1   
     6     4     5 2   
     7     5    30 1   
     8     6     5 1   
     9     6    11 2   
    10     7     6 1   
    11     7    31 1   
    12     8     9 1   
    13     8     7 2   
    14     8    32 1   
    15     9     4 1   
    16    10     1 1   
    17    10     9 2   
    18    10    33 1   
    19    11    13 1   
    20    12    11 1   
    21    13    14 1   
    22    13    15 1   
    23    15    16 ar  
    24    15    20 ar  
    25    16    17 ar  
    26    16    34 1   
    27    17    18 ar  
    28    17    35 1   
    29    18    36 1   
    30    19    18 ar  
    31    19    37 1   
    32    20    19 ar  
    33    20    38 1   
    34    21    22 1   
    35    21     1 2   
    36    22    23 1   
    37    24    22 1   
    38    25    21 1   
    39    26    25 1   
    40    27    25 1   
@<TRIPOS>SUBSTRUCTURE
     1 MOL         1 TEMP              0 ****  ****    0 ROOT
