MODEL 1
REMARK VINA RESULT:      -9.3      0.000      0.000
REMARK  8 active torsions:
REMARK  status: ('A' for Active; 'I' for Inactive)
REMARK    1  A    between atoms: C_1  and  C8_13 
REMARK    2  A    between atoms: C1_2  and  C14_21 
REMARK    3  A    between atoms: C5_7  and  O1_8 
REMARK    4  A    between atoms: C11_16  and  O2_17 
REMARK    5  A    between atoms: C17_24  and  O3_27 
REMARK    6  A    between atoms: O3_27  and  C20_28 
REMARK    7  A    between atoms: C20_28  and  C21_29 
REMARK    8  A    between atoms: C21_29  and  N_30 
ROOT
ATOM      1  C   UNL d          29.621  47.895  12.592  0.00  0.00     0.119 C 
ATOM      2  C1  UNL d          29.949  47.629  14.062  0.00  0.00     0.180 C 
ATOM      3  O   UNL d          30.014  48.871  14.776  0.00  0.00    -0.338 OA
ATOM      4  C2  UNL d          28.984  49.732  14.835  0.00  0.00     0.086 C 
ATOM      5  C3  UNL d          28.788  50.442  16.009  0.00  0.00     0.041 C 
ATOM      6  C4  UNL d          27.690  51.274  16.172  0.00  0.00     0.039 C 
ATOM      7  C5  UNL d          26.901  51.577  15.050  0.00  0.00     0.067 C 
ATOM      8  C6  UNL d          27.099  50.861  13.858  0.00  0.00     0.057 C 
ATOM      9  C7  UNL d          28.098  49.908  13.736  0.00  0.00     0.037 C 
ATOM     10  S   UNL d          28.270  49.062  12.504  0.00  0.00    -0.114 SA
ENDROOT
BRANCH   2  11
ATOM     11  C14 UNL d          29.020  46.686  14.822  0.00  0.00    -0.027 A 
ATOM     12  C15 UNL d          29.646  45.554  15.358  0.00  0.00     0.012 A 
ATOM     13  C16 UNL d          28.935  44.605  16.097  0.00  0.00     0.037 A 
ATOM     14  C17 UNL d          27.539  44.764  16.273  0.00  0.00     0.068 A 
ATOM     15  C18 UNL d          26.920  45.904  15.791  0.00  0.00     0.037 A 
ATOM     16  C19 UNL d          27.647  46.850  15.019  0.00  0.00     0.012 A 
BRANCH  14  17
ATOM     17  O3  UNL d          26.808  43.842  16.952  0.00  0.00    -0.350 OA
BRANCH  17  18
ATOM     18  C20 UNL d          26.096  44.022  18.189  0.00  0.00     0.203 C 
BRANCH  18  19
ATOM     19  C21 UNL d          26.267  42.876  19.211  0.00  0.00     0.261 C 
BRANCH  19  20
ATOM     20  N   UNL d          25.188  41.909  19.524  0.00  0.00    -0.069 N 
ATOM     21  C22 UNL d          24.290  42.221  20.623  0.00  0.00     0.235 C 
ATOM     22  C23 UNL d          23.495  41.012  21.164  0.00  0.00     0.028 C 
ATOM     23  C24 UNL d          22.787  40.233  20.035  0.00  0.00     0.003 C 
ATOM     24  C25 UNL d          23.857  39.902  18.962  0.00  0.00     0.028 C 
ATOM     25  C26 UNL d          24.531  41.194  18.425  0.00  0.00     0.235 C 
ATOM     26  H19 UNL d          25.766  41.174  19.920  0.00  0.00     0.280 HD
ENDBRANCH  19  20
ENDBRANCH  18  19
ENDBRANCH  17  18
ENDBRANCH  14  17
ENDBRANCH   2  11
BRANCH   1  27
ATOM     27  C8  UNL d          29.549  46.573  11.865  0.00  0.00    -0.041 A 
ATOM     28  C9  UNL d          30.593  45.650  11.762  0.00  0.00     0.011 A 
ATOM     29  C10 UNL d          30.409  44.452  11.059  0.00  0.00     0.037 A 
ATOM     30  C11 UNL d          29.167  44.173  10.464  0.00  0.00     0.065 A 
ATOM     31  C12 UNL d          28.118  45.097  10.545  0.00  0.00     0.037 A 
ATOM     32  C13 UNL d          28.311  46.280  11.271  0.00  0.00     0.011 A 
BRANCH  30  33
ATOM     33  O2  UNL d          28.995  43.039   9.758  0.00  0.00    -0.361 OA
ATOM     34  H8  UNL d          29.393  43.158   8.815  0.00  0.00     0.217 HD
ENDBRANCH  30  33
ENDBRANCH   1  27
BRANCH   7  35
ATOM     35  O1  UNL d          25.920  52.474  15.190  0.00  0.00    -0.361 OA
ATOM     36  H4  UNL d          26.210  53.369  14.770  0.00  0.00     0.217 HD
ENDBRANCH   7  35
TORSDOF 8
ENDMDL
MODEL 2
REMARK VINA RESULT:      -8.6      1.990      3.086
REMARK  8 active torsions:
REMARK  status: ('A' for Active; 'I' for Inactive)
REMARK    1  A    between atoms: C_1  and  C8_13 
REMARK    2  A    between atoms: C1_2  and  C14_21 
REMARK    3  A    between atoms: C5_7  and  O1_8 
REMARK    4  A    between atoms: C11_16  and  O2_17 
REMARK    5  A    between atoms: C17_24  and  O3_27 
REMARK    6  A    between atoms: O3_27  and  C20_28 
REMARK    7  A    between atoms: C20_28  and  C21_29 
REMARK    8  A    between atoms: C21_29  and  N_30 
ROOT
ATOM      1  C   UNL d          29.683  47.911  12.521  0.00  0.00     0.119 C 
ATOM      2  C1  UNL d          30.035  47.691  13.993  0.00  0.00     0.180 C 
ATOM      3  O   UNL d          30.148  48.957  14.658  0.00  0.00    -0.338 OA
ATOM      4  C2  UNL d          29.142  49.847  14.706  0.00  0.00     0.086 C 
ATOM      5  C3  UNL d          28.991  50.605  15.856  0.00  0.00     0.041 C 
ATOM      6  C4  UNL d          27.918  51.472  16.010  0.00  0.00     0.039 C 
ATOM      7  C5  UNL d          27.115  51.754  14.893  0.00  0.00     0.067 C 
ATOM      8  C6  UNL d          27.268  50.990  13.725  0.00  0.00     0.057 C 
ATOM      9  C7  UNL d          28.238  50.006  13.619  0.00  0.00     0.037 C 
ATOM     10  S   UNL d          28.362  49.111  12.417  0.00  0.00    -0.114 SA
ENDROOT
BRANCH   2  11
ATOM     11  C14 UNL d          29.098  46.803  14.807  0.00  0.00    -0.027 A 
ATOM     12  C15 UNL d          29.705  45.678  15.378  0.00  0.00     0.012 A 
ATOM     13  C16 UNL d          28.985  44.778  16.167  0.00  0.00     0.037 A 
ATOM     14  C17 UNL d          27.597  44.977  16.359  0.00  0.00     0.068 A 
ATOM     15  C18 UNL d          26.997  46.112  15.841  0.00  0.00     0.037 A 
ATOM     16  C19 UNL d          27.732  47.008  15.019  0.00  0.00     0.012 A 
BRANCH  14  17
ATOM     17  O3  UNL d          26.856  44.102  17.088  0.00  0.00    -0.350 OA
BRANCH  17  18
ATOM     18  C20 UNL d          27.264  42.825  17.608  0.00  0.00     0.203 C 
BRANCH  18  19
ATOM     19  C21 UNL d          26.807  41.606  16.776  0.00  0.00     0.261 C 
BRANCH  19  20
ATOM     20  N   UNL d          27.049  41.490  15.318  0.00  0.00    -0.069 N 
ATOM     21  C22 UNL d          28.426  41.502  14.854  0.00  0.00     0.235 C 
ATOM     22  C23 UNL d          28.592  41.813  13.349  0.00  0.00     0.028 C 
ATOM     23  C24 UNL d          27.688  40.922  12.471  0.00  0.00     0.003 C 
ATOM     24  C25 UNL d          26.243  41.046  13.023  0.00  0.00     0.028 C 
ATOM     25  C26 UNL d          26.176  40.626  14.517  0.00  0.00     0.235 C 
ATOM     26  H19 UNL d          26.722  42.411  15.045  0.00  0.00     0.280 HD
ENDBRANCH  19  20
ENDBRANCH  18  19
ENDBRANCH  17  18
ENDBRANCH  14  17
ENDBRANCH   2  11
BRANCH   1  27
ATOM     27  C8  UNL d          29.561  46.565  11.846  0.00  0.00    -0.041 A 
ATOM     28  C9  UNL d          30.577  45.612  11.758  0.00  0.00     0.011 A 
ATOM     29  C10 UNL d          30.347  44.394  11.104  0.00  0.00     0.037 A 
ATOM     30  C11 UNL d          29.087  44.126  10.544  0.00  0.00     0.065 A 
ATOM     31  C12 UNL d          28.064  45.082  10.611  0.00  0.00     0.037 A 
ATOM     32  C13 UNL d          28.304  46.285  11.288  0.00  0.00     0.011 A 
BRANCH  30  33
ATOM     33  O2  UNL d          28.869  42.973   9.885  0.00  0.00    -0.361 OA
ATOM     34  H8  UNL d          28.499  43.179   8.946  0.00  0.00     0.217 HD
ENDBRANCH  30  33
ENDBRANCH   1  27
BRANCH   7  35
ATOM     35  O1  UNL d          26.160  52.683  15.019  0.00  0.00    -0.361 OA
ATOM     36  H4  UNL d          26.594  53.616  15.082  0.00  0.00     0.217 HD
ENDBRANCH   7  35
TORSDOF 8
ENDMDL
MODEL 3
REMARK VINA RESULT:      -8.5      4.028      8.781
REMARK  8 active torsions:
REMARK  status: ('A' for Active; 'I' for Inactive)
REMARK    1  A    between atoms: C_1  and  C8_13 
REMARK    2  A    between atoms: C1_2  and  C14_21 
REMARK    3  A    between atoms: C5_7  and  O1_8 
REMARK    4  A    between atoms: C11_16  and  O2_17 
REMARK    5  A    between atoms: C17_24  and  O3_27 
REMARK    6  A    between atoms: O3_27  and  C20_28 
REMARK    7  A    between atoms: C20_28  and  C21_29 
REMARK    8  A    between atoms: C21_29  and  N_30 
ROOT
ATOM      1  C   UNL d          29.545  46.687  15.036  0.00  0.00     0.119 C 
ATOM      2  C1  UNL d          29.818  46.327  13.575  0.00  0.00     0.180 C 
ATOM      3  O   UNL d          29.977  44.907  13.449  0.00  0.00    -0.338 OA
ATOM      4  C2  UNL d          29.025  44.032  13.816  0.00  0.00     0.086 C 
ATOM      5  C3  UNL d          28.868  42.878  13.064  0.00  0.00     0.041 C 
ATOM      6  C4  UNL d          27.843  41.981  13.329  0.00  0.00     0.039 C 
ATOM      7  C5  UNL d          27.108  42.129  14.516  0.00  0.00     0.067 C 
ATOM      8  C6  UNL d          27.268  43.295  15.283  0.00  0.00     0.057 C 
ATOM      9  C7  UNL d          28.181  44.277  14.935  0.00  0.00     0.037 C 
ATOM     10  S   UNL d          28.304  45.576  15.684  0.00  0.00    -0.114 SA
ENDROOT
BRANCH   2  11
ATOM     11  C14 UNL d          28.794  46.789  12.542  0.00  0.00    -0.027 A 
ATOM     12  C15 UNL d          29.341  47.210  11.324  0.00  0.00     0.012 A 
ATOM     13  C16 UNL d          28.533  47.644  10.270  0.00  0.00     0.037 A 
ATOM     14  C17 UNL d          27.130  47.706  10.448  0.00  0.00     0.068 A 
ATOM     15  C18 UNL d          26.576  47.246  11.630  0.00  0.00     0.037 A 
ATOM     16  C19 UNL d          27.407  46.830  12.705  0.00  0.00     0.012 A 
BRANCH  14  17
ATOM     17  O3  UNL d          26.316  48.160   9.460  0.00  0.00    -0.350 OA
BRANCH  17  18
ATOM     18  C20 UNL d          26.289  49.475   8.877  0.00  0.00     0.203 C 
BRANCH  18  19
ATOM     19  C21 UNL d          25.334  50.474   9.569  0.00  0.00     0.261 C 
BRANCH  19  20
ATOM     20  N   UNL d          25.754  51.342  10.694  0.00  0.00    -0.069 N 
ATOM     21  C22 UNL d          24.744  52.170  11.330  0.00  0.00     0.235 C 
ATOM     22  C23 UNL d          25.308  53.336  12.171  0.00  0.00     0.028 C 
ATOM     23  C24 UNL d          26.387  52.862  13.168  0.00  0.00     0.003 C 
ATOM     24  C25 UNL d          27.436  52.053  12.363  0.00  0.00     0.028 C 
ATOM     25  C26 UNL d          26.775  50.854  11.627  0.00  0.00     0.235 C 
ATOM     26  H19 UNL d          26.285  52.022  10.159  0.00  0.00     0.280 HD
ENDBRANCH  19  20
ENDBRANCH  18  19
ENDBRANCH  17  18
ENDBRANCH  14  17
ENDBRANCH   2  11
BRANCH   1  27
ATOM     27  C8  UNL d          29.373  48.185  15.141  0.00  0.00    -0.041 A 
ATOM     28  C9  UNL d          30.153  49.135  14.479  0.00  0.00     0.011 A 
ATOM     29  C10 UNL d          29.899  50.502  14.655  0.00  0.00     0.037 A 
ATOM     30  C11 UNL d          28.850  50.918  15.490  0.00  0.00     0.065 A 
ATOM     31  C12 UNL d          28.071  49.975  16.173  0.00  0.00     0.037 A 
ATOM     32  C13 UNL d          28.323  48.612  15.970  0.00  0.00     0.011 A 
BRANCH  30  33
ATOM     33  O2  UNL d          28.622  52.230  15.690  0.00  0.00    -0.361 OA
ATOM     34  H8  UNL d          28.720  52.736  14.798  0.00  0.00     0.217 HD
ENDBRANCH  30  33
ENDBRANCH   1  27
BRANCH   7  35
ATOM     35  O1  UNL d          26.206  41.189  14.823  0.00  0.00    -0.361 OA
ATOM     36  H4  UNL d          25.955  41.267  15.820  0.00  0.00     0.217 HD
ENDBRANCH   7  35
TORSDOF 8
ENDMDL
