@<TRIPOS>MOLECULE
MOL
   63    67     1     0     0
SMALL
No Charge or Current Charge


@<TRIPOS>ATOM
      1 C1          29.6830    47.9110    12.5210 c3         1 MOL       0.000000
      2 C2          30.0350    47.6910    13.9930 c3         1 MOL       0.000000
      3 O1          30.1480    48.9570    14.6580 os         1 MOL       0.000000
      4 C3          29.1420    49.8470    14.7060 ca         1 MOL       0.000000
      5 C4          28.9910    50.6050    15.8560 ca         1 MOL       0.000000
      6 C5          27.9180    51.4720    16.0100 ca         1 MOL       0.000000
      7 C6          27.1150    51.7540    14.8930 ca         1 MOL       0.000000
      8 C7          27.2680    50.9900    13.7250 ca         1 MOL       0.000000
      9 C8          28.2380    50.0060    13.6190 ca         1 MOL       0.000000
     10 S1          28.3620    49.1110    12.4170 ss         1 MOL       0.000000
     11 C9          29.0980    46.8030    14.8070 ca         1 MOL       0.000000
     12 C10         29.7050    45.6780    15.3780 ca         1 MOL       0.000000
     13 C11         28.9850    44.7780    16.1670 ca         1 MOL       0.000000
     14 C12         27.5970    44.9770    16.3590 ca         1 MOL       0.000000
     15 C13         26.9970    46.1120    15.8410 ca         1 MOL       0.000000
     16 C14         27.7320    47.0080    15.0190 ca         1 MOL       0.000000
     17 O2          26.8560    44.1020    17.0880 os         1 MOL       0.000000
     18 C15         27.2640    42.8250    17.6080 c3         1 MOL       0.000000
     19 C16         26.8070    41.6060    16.7760 c3         1 MOL       0.000000
     20 N1          27.0490    41.4900    15.3180 n4         1 MOL       0.000000
     21 C17         28.4260    41.5020    14.8540 c3         1 MOL       0.000000
     22 C18         28.5920    41.8130    13.3490 c3         1 MOL       0.000000
     23 C19         27.6880    40.9220    12.4710 c3         1 MOL       0.000000
     24 C20         26.2430    41.0460    13.0230 c3         1 MOL       0.000000
     25 C21         26.1760    40.6260    14.5170 c3         1 MOL       0.000000
     26 H1          26.7220    42.4110    15.0450 hn         1 MOL       0.000000
     27 C22         29.5610    46.5650    11.8460 ca         1 MOL       0.000000
     28 C23         30.5770    45.6120    11.7580 ca         1 MOL       0.000000
     29 C24         30.3470    44.3940    11.1040 ca         1 MOL       0.000000
     30 C25         29.0870    44.1260    10.5440 ca         1 MOL       0.000000
     31 C26         28.0640    45.0820    10.6110 ca         1 MOL       0.000000
     32 C27         28.3040    46.2850    11.2880 ca         1 MOL       0.000000
     33 O3          28.8690    42.9730     9.8850 oh         1 MOL       0.000000
     34 H2          28.4990    43.1790     8.9460 ho         1 MOL       0.000000
     35 O4          26.1600    52.6830    15.0190 oh         1 MOL       0.000000
     36 H3          26.5940    53.6160    15.0820 ho         1 MOL       0.000000
     37 H4          30.4430    48.3800    11.9310 h1         1 MOL       0.000000
     38 H5          30.9600    47.1540    13.9510 h1         1 MOL       0.000000
     39 H6          29.6890    50.5230    16.6120 ha         1 MOL       0.000000
     40 H7          27.7150    51.9010    16.9270 ha         1 MOL       0.000000
     41 H8          26.6410    51.1660    12.9240 ha         1 MOL       0.000000
     42 H9          30.7090    45.5100    15.2120 ha         1 MOL       0.000000
     43 H10         29.4610    43.9750    16.6060 ha         1 MOL       0.000000
     44 H11         26.0070    46.3090    16.0540 ha         1 MOL       0.000000
     45 H12         27.2570    47.8110    14.5780 ha         1 MOL       0.000000
     46 H13         28.3330    42.8120    17.6560 h1         1 MOL       0.000000
     47 H14         26.7950    42.7270    18.5650 h1         1 MOL       0.000000
     48 H15         27.2740    40.7530    17.2220 hx         1 MOL       0.000000
     49 H16         25.7420    41.7090    16.8100 hx         1 MOL       0.000000
     50 H17         28.9590    42.2450    15.4100 hx         1 MOL       0.000000
     51 H18         28.8070    40.5130    15.0050 hx         1 MOL       0.000000
     52 H19         28.3370    42.8380    13.1780 hc         1 MOL       0.000000
     53 H20         29.6090    41.6170    13.0810 hc         1 MOL       0.000000
     54 H21         27.7220    41.2550    11.4550 hc         1 MOL       0.000000
     55 H22         28.0180    39.9040    12.4980 hc         1 MOL       0.000000
     56 H23         25.5960    40.4130    12.4530 hc         1 MOL       0.000000
     57 H24         25.9360    42.0680    12.9440 hc         1 MOL       0.000000
     58 H25         26.4960    39.6100    14.6140 hx         1 MOL       0.000000
     59 H26         25.1690    40.7230    14.8650 hx         1 MOL       0.000000
     60 H27         31.5010    45.8050    12.1760 ha         1 MOL       0.000000
     61 H28         31.1030    43.6950    11.0340 ha         1 MOL       0.000000
     62 H29         27.1490    44.9030    10.1690 ha         1 MOL       0.000000
     63 H30         27.5440    46.9770    11.3780 ha         1 MOL       0.000000
@<TRIPOS>BOND
     1     1     2 1   
     2     1    37 1   
     3     2     3 1   
     4     2    11 1   
     5     2    38 1   
     6     3     4 1   
     7     4     5 ar  
     8     5     6 ar  
     9     5    39 1   
    10     6    40 1   
    11     7    35 1   
    12     7     6 ar  
    13     8     7 ar  
    14     8    41 1   
    15     9     8 ar  
    16     9     4 ar  
    17    10     1 1   
    18    10     9 1   
    19    11    16 ar  
    20    11    12 ar  
    21    12    13 ar  
    22    12    42 1   
    23    13    14 ar  
    24    13    43 1   
    25    14    17 1   
    26    15    14 ar  
    27    15    44 1   
    28    16    15 ar  
    29    16    45 1   
    30    17    18 1   
    31    18    46 1   
    32    18    47 1   
    33    19    18 1   
    34    19    48 1   
    35    19    49 1   
    36    20    19 1   
    37    21    20 1   
    38    21    50 1   
    39    21    51 1   
    40    22    21 1   
    41    22    52 1   
    42    22    53 1   
    43    23    24 1   
    44    23    22 1   
    45    23    54 1   
    46    23    55 1   
    47    24    25 1   
    48    24    56 1   
    49    24    57 1   
    50    25    20 1   
    51    25    58 1   
    52    25    59 1   
    53    26    20 1   
    54    27     1 1   
    55    28    27 ar  
    56    28    60 1   
    57    29    28 ar  
    58    29    61 1   
    59    30    31 ar  
    60    30    29 ar  
    61    31    32 ar  
    62    31    62 1   
    63    32    27 ar  
    64    32    63 1   
    65    33    30 1   
    66    34    33 1   
    67    35    36 1   
@<TRIPOS>SUBSTRUCTURE
     1 MOL         1 TEMP              0 ****  ****    0 ROOT
