@<TRIPOS>MOLECULE
MOL
   63    67     1     0     0
SMALL
No Charge or Current Charge


@<TRIPOS>ATOM
      1 C1          29.5450    46.6870    15.0360 c3         1 MOL       0.000000
      2 C2          29.8180    46.3270    13.5750 c3         1 MOL       0.000000
      3 O1          29.9770    44.9070    13.4490 os         1 MOL       0.000000
      4 C3          29.0250    44.0320    13.8160 ca         1 MOL       0.000000
      5 C4          28.8680    42.8780    13.0640 ca         1 MOL       0.000000
      6 C5          27.8430    41.9810    13.3290 ca         1 MOL       0.000000
      7 C6          27.1080    42.1290    14.5160 ca         1 MOL       0.000000
      8 C7          27.2680    43.2950    15.2830 ca         1 MOL       0.000000
      9 C8          28.1810    44.2770    14.9350 ca         1 MOL       0.000000
     10 S1          28.3040    45.5760    15.6840 ss         1 MOL       0.000000
     11 C9          28.7940    46.7890    12.5420 ca         1 MOL       0.000000
     12 C10         29.3410    47.2100    11.3240 ca         1 MOL       0.000000
     13 C11         28.5330    47.6440    10.2700 ca         1 MOL       0.000000
     14 C12         27.1300    47.7060    10.4480 ca         1 MOL       0.000000
     15 C13         26.5760    47.2460    11.6300 ca         1 MOL       0.000000
     16 C14         27.4070    46.8300    12.7050 ca         1 MOL       0.000000
     17 O2          26.3160    48.1600     9.4600 os         1 MOL       0.000000
     18 C15         26.2890    49.4750     8.8770 c3         1 MOL       0.000000
     19 C16         25.3340    50.4740     9.5690 c3         1 MOL       0.000000
     20 N1          25.7540    51.3420    10.6940 n4         1 MOL       0.000000
     21 C17         24.7440    52.1700    11.3300 c3         1 MOL       0.000000
     22 C18         25.3080    53.3360    12.1710 c3         1 MOL       0.000000
     23 C19         26.3870    52.8620    13.1680 c3         1 MOL       0.000000
     24 C20         27.4360    52.0530    12.3630 c3         1 MOL       0.000000
     25 C21         26.7750    50.8540    11.6270 c3         1 MOL       0.000000
     26 H1          26.2850    52.0220    10.1590 hn         1 MOL       0.000000
     27 C22         29.3730    48.1850    15.1410 ca         1 MOL       0.000000
     28 C23         30.1530    49.1350    14.4790 ca         1 MOL       0.000000
     29 C24         29.8990    50.5020    14.6550 ca         1 MOL       0.000000
     30 C25         28.8500    50.9180    15.4900 ca         1 MOL       0.000000
     31 C26         28.0710    49.9750    16.1730 ca         1 MOL       0.000000
     32 C27         28.3230    48.6120    15.9700 ca         1 MOL       0.000000
     33 O3          28.6220    52.2300    15.6900 oh         1 MOL       0.000000
     34 H2          28.7200    52.7360    14.7980 ho         1 MOL       0.000000
     35 O4          26.2060    41.1890    14.8230 oh         1 MOL       0.000000
     36 H3          25.9550    41.2670    15.8200 ho         1 MOL       0.000000
     37 H4          30.3570    46.5140    15.7110 h1         1 MOL       0.000000
     38 H5          30.7090    46.8720    13.3450 h1         1 MOL       0.000000
     39 H6          29.5260    42.6820    12.2930 ha         1 MOL       0.000000
     40 H7          27.6250    41.2200    12.6670 ha         1 MOL       0.000000
     41 H8          26.6900    43.4230    16.1280 ha         1 MOL       0.000000
     42 H9          30.3660    47.2000    11.2020 ha         1 MOL       0.000000
     43 H10         28.9560    47.9170     9.3690 ha         1 MOL       0.000000
     44 H11         25.5500    47.2050    11.7320 ha         1 MOL       0.000000
     45 H12         26.9860    46.5580    13.6070 ha         1 MOL       0.000000
     46 H13         25.9860    49.3790     7.8550 h1         1 MOL       0.000000
     47 H14         27.2750    49.8740     8.9910 h1         1 MOL       0.000000
     48 H15         24.5140    49.8930     9.9350 hx         1 MOL       0.000000
     49 H16         25.1740    51.1920     8.7920 hx         1 MOL       0.000000
     50 H17         24.1580    51.5470    11.9730 hx         1 MOL       0.000000
     51 H18         24.1720    52.6130    10.5410 hx         1 MOL       0.000000
     52 H19         24.5060    53.7860    12.7180 hc         1 MOL       0.000000
     53 H20         25.7620    54.0360    11.5020 hc         1 MOL       0.000000
     54 H21         25.9440    52.2420    13.9190 hc         1 MOL       0.000000
     55 H22         26.8460    53.6970    13.6550 hc         1 MOL       0.000000
     56 H23         27.8940    52.6960    11.6410 hc         1 MOL       0.000000
     57 H24         28.1670    51.6710    13.0450 hc         1 MOL       0.000000
     58 H25         27.5230    50.3150    11.0840 hx         1 MOL       0.000000
     59 H26         26.3150    50.2090    12.3470 hx         1 MOL       0.000000
     60 H27         30.9190    48.8300    13.8580 ha         1 MOL       0.000000
     61 H28         30.4830    51.2020    14.1710 ha         1 MOL       0.000000
     62 H29         27.3230    50.2800    16.8160 ha         1 MOL       0.000000
     63 H30         27.7270    47.9100    16.4370 ha         1 MOL       0.000000
@<TRIPOS>BOND
     1     1     2 1   
     2     1    27 1   
     3     1    10 1   
     4     1    37 1   
     5     2    38 1   
     6     3     2 1   
     7     3     4 1   
     8     4     9 ar  
     9     5     6 ar  
    10     5     4 ar  
    11     5    39 1   
    12     6     7 ar  
    13     6    40 1   
    14     7    35 1   
    15     7     8 ar  
    16     8    41 1   
    17     9     8 ar  
    18     9    10 1   
    19    11    16 ar  
    20    11     2 1   
    21    12    11 ar  
    22    12    42 1   
    23    13    14 ar  
    24    13    12 ar  
    25    13    43 1   
    26    14    15 ar  
    27    15    16 ar  
    28    15    44 1   
    29    16    45 1   
    30    17    14 1   
    31    18    17 1   
    32    18    19 1   
    33    18    46 1   
    34    18    47 1   
    35    19    20 1   
    36    19    48 1   
    37    19    49 1   
    38    20    21 1   
    39    20    25 1   
    40    21    22 1   
    41    21    50 1   
    42    21    51 1   
    43    22    23 1   
    44    22    52 1   
    45    22    53 1   
    46    23    54 1   
    47    23    55 1   
    48    24    23 1   
    49    24    56 1   
    50    24    57 1   
    51    25    24 1   
    52    25    58 1   
    53    25    59 1   
    54    26    20 1   
    55    27    32 ar  
    56    28    29 ar  
    57    28    27 ar  
    58    28    60 1   
    59    29    30 ar  
    60    29    61 1   
    61    30    33 1   
    62    30    31 ar  
    63    31    62 1   
    64    32    31 ar  
    65    32    63 1   
    66    34    33 1   
    67    35    36 1   
@<TRIPOS>SUBSTRUCTURE
     1 MOL         1 TEMP              0 ****  ****    0 ROOT
