@<TRIPOS>MOLECULE
MOL
   63    67     1     0     0
SMALL
No Charge or Current Charge


@<TRIPOS>ATOM
      1 C1          29.6210    47.8950    12.5920 c3         1 MOL       0.000000
      2 C2          29.9490    47.6290    14.0620 c3         1 MOL       0.000000
      3 O1          30.0140    48.8710    14.7760 os         1 MOL       0.000000
      4 C3          28.9840    49.7320    14.8350 ca         1 MOL       0.000000
      5 C4          28.7880    50.4420    16.0090 ca         1 MOL       0.000000
      6 C5          27.6900    51.2740    16.1720 ca         1 MOL       0.000000
      7 C6          26.9010    51.5770    15.0500 ca         1 MOL       0.000000
      8 C7          27.0990    50.8610    13.8580 ca         1 MOL       0.000000
      9 C8          28.0980    49.9080    13.7360 ca         1 MOL       0.000000
     10 S1          28.2700    49.0620    12.5040 ss         1 MOL       0.000000
     11 C9          29.0200    46.6860    14.8220 ca         1 MOL       0.000000
     12 C10         29.6460    45.5540    15.3580 ca         1 MOL       0.000000
     13 C11         28.9350    44.6050    16.0970 ca         1 MOL       0.000000
     14 C12         27.5390    44.7640    16.2730 ca         1 MOL       0.000000
     15 C13         26.9200    45.9040    15.7910 ca         1 MOL       0.000000
     16 C14         27.6470    46.8500    15.0190 ca         1 MOL       0.000000
     17 O2          26.8080    43.8420    16.9520 os         1 MOL       0.000000
     18 C15         26.0960    44.0220    18.1890 c3         1 MOL       0.000000
     19 C16         26.2670    42.8760    19.2110 c3         1 MOL       0.000000
     20 N1          25.1880    41.9090    19.5240 n4         1 MOL       0.000000
     21 C17         24.2900    42.2210    20.6230 c3         1 MOL       0.000000
     22 C18         23.4950    41.0120    21.1640 c3         1 MOL       0.000000
     23 C19         22.7870    40.2330    20.0350 c3         1 MOL       0.000000
     24 C20         23.8570    39.9020    18.9620 c3         1 MOL       0.000000
     25 C21         24.5310    41.1940    18.4250 c3         1 MOL       0.000000
     26 H1          25.7660    41.1740    19.9200 hn         1 MOL       0.000000
     27 C22         29.5490    46.5730    11.8650 ca         1 MOL       0.000000
     28 C23         30.5930    45.6500    11.7620 ca         1 MOL       0.000000
     29 C24         30.4090    44.4520    11.0590 ca         1 MOL       0.000000
     30 C25         29.1670    44.1730    10.4640 ca         1 MOL       0.000000
     31 C26         28.1180    45.0970    10.5450 ca         1 MOL       0.000000
     32 C27         28.3110    46.2800    11.2710 ca         1 MOL       0.000000
     33 O3          28.9950    43.0390     9.7580 oh         1 MOL       0.000000
     34 H2          29.3930    43.1580     8.8150 ho         1 MOL       0.000000
     35 O4          25.9200    52.4740    15.1900 oh         1 MOL       0.000000
     36 H3          26.2100    53.3690    14.7700 ho         1 MOL       0.000000
     37 H4          30.3800    48.4060    12.0370 h1         1 MOL       0.000000
     38 H5          30.8890    47.1190    14.0200 h1         1 MOL       0.000000
     39 H6          29.4720    50.3500    16.7760 ha         1 MOL       0.000000
     40 H7          27.4570    51.6630    17.0990 ha         1 MOL       0.000000
     41 H8          26.4840    51.0500    13.0510 ha         1 MOL       0.000000
     42 H9          30.6570    45.4170    15.2040 ha         1 MOL       0.000000
     43 H10         29.4230    43.7950    16.5110 ha         1 MOL       0.000000
     44 H11         25.9220    46.0690    15.9940 ha         1 MOL       0.000000
     45 H12         27.1600    47.6590    14.6030 ha         1 MOL       0.000000
     46 H13         25.0540    44.1130    17.9630 h1         1 MOL       0.000000
     47 H14         26.5080    44.8970    18.6480 h1         1 MOL       0.000000
     48 H15         26.5230    43.3430    20.1390 hx         1 MOL       0.000000
     49 H16         26.9800    42.2500    18.7150 hx         1 MOL       0.000000
     50 H17         23.5900    42.9560    20.2840 hx         1 MOL       0.000000
     51 H18         24.9040    42.5670    21.4280 hx         1 MOL       0.000000
     52 H19         24.1700    40.3520    21.6680 hc         1 MOL       0.000000
     53 H20         22.7450    41.3820    21.8310 hc         1 MOL       0.000000
     54 H21         22.3650    39.3290    20.4220 hc         1 MOL       0.000000
     55 H22         21.9940    40.8150    19.6130 hc         1 MOL       0.000000
     56 H23         24.6050    39.2730    19.3970 hc         1 MOL       0.000000
     57 H24         23.3760    39.4060    18.1450 hc         1 MOL       0.000000
     58 H25         23.7870    41.8250    17.9850 hx         1 MOL       0.000000
     59 H26         25.2620    40.9300    17.6900 hx         1 MOL       0.000000
     60 H27         31.5030    45.8510    12.2050 ha         1 MOL       0.000000
     61 H28         31.1840    43.7760    10.9780 ha         1 MOL       0.000000
     62 H29         27.2170    44.9100    10.0780 ha         1 MOL       0.000000
     63 H30         27.5300    46.9470    11.3710 ha         1 MOL       0.000000
@<TRIPOS>BOND
     1     1     2 1   
     2     1    37 1   
     3     2     3 1   
     4     2    11 1   
     5     2    38 1   
     6     3     4 1   
     7     4     5 ar  
     8     5     6 ar  
     9     5    39 1   
    10     6    40 1   
    11     7    35 1   
    12     7     6 ar  
    13     8     7 ar  
    14     8    41 1   
    15     9     8 ar  
    16     9     4 ar  
    17    10     1 1   
    18    10     9 1   
    19    11    16 ar  
    20    11    12 ar  
    21    12    13 ar  
    22    12    42 1   
    23    13    14 ar  
    24    13    43 1   
    25    14    17 1   
    26    15    14 ar  
    27    15    44 1   
    28    16    15 ar  
    29    16    45 1   
    30    17    18 1   
    31    18    19 1   
    32    18    46 1   
    33    18    47 1   
    34    19    20 1   
    35    19    48 1   
    36    19    49 1   
    37    20    26 1   
    38    20    21 1   
    39    21    22 1   
    40    21    50 1   
    41    21    51 1   
    42    22    52 1   
    43    22    53 1   
    44    23    22 1   
    45    23    54 1   
    46    23    55 1   
    47    24    23 1   
    48    24    56 1   
    49    24    57 1   
    50    25    24 1   
    51    25    20 1   
    52    25    58 1   
    53    25    59 1   
    54    27     1 1   
    55    28    27 ar  
    56    28    60 1   
    57    29    28 ar  
    58    29    61 1   
    59    30    31 ar  
    60    30    29 ar  
    61    31    32 ar  
    62    31    62 1   
    63    32    27 ar  
    64    32    63 1   
    65    33    30 1   
    66    34    33 1   
    67    36    35 1   
@<TRIPOS>SUBSTRUCTURE
     1 MOL         1 TEMP              0 ****  ****    0 ROOT
