@<TRIPOS>MOLECULE
MOL
   32    31     1     0     0
SMALL
No Charge or Current Charge


@<TRIPOS>ATOM
      1 C1          28.9910     4.2660    58.6680 c3         1 MOL       0.000000
      2 C2          28.9040     5.3340    57.3660 c3         1 MOL       0.000000
      3 C3          27.3950     5.8180    57.2450 c3         1 MOL       0.000000
      4 C4          29.4000     4.7250    56.0800 c3         1 MOL       0.000000
      5 C5          29.8070     6.6220    57.5810 c3         1 MOL       0.000000
      6 O1          31.1210     6.3090    58.0360 oh         1 MOL       0.000000
      7 H1          31.6390     5.8280    57.2860 ho         1 MOL       0.000000
      8 O2          30.3690     3.7940    58.8030 oh         1 MOL       0.000000
      9 H2          30.8460     3.8620    57.8920 ho         1 MOL       0.000000
     10 C6          28.6160     4.9400    60.0690 c          1 MOL       0.000000
     11 O3          27.7350     4.3220    60.8610 o          1 MOL       0.000000
     12 N1          29.1980     6.0710    60.4310 n          1 MOL       0.000000
     13 H3          29.8230     6.5360    59.7580 hn         1 MOL       0.000000
     14 C7          28.9960     6.7080    61.7660 c3         1 MOL       0.000000
     15 C8          30.2570     7.4930    62.2390 c3         1 MOL       0.000000
     16 C9          31.5250     7.0950    61.4520 c          1 MOL       0.000000
     17 O4          31.9900     7.8120    60.4320 o          1 MOL       0.000000
     18 O5          32.0990     5.9800    61.8770 oh         1 MOL       0.000000
     19 H4          28.2910     3.4850    58.4590 h1         1 MOL       0.000000
     20 H5          27.3040     6.5000    56.4250 hc         1 MOL       0.000000
     21 H6          27.1040     6.3080    58.1510 hc         1 MOL       0.000000
     22 H7          26.7620     4.9720    57.0780 hc         1 MOL       0.000000
     23 H8          29.3220     5.4440    55.2910 hc         1 MOL       0.000000
     24 H9          28.8080     3.8670    55.8400 hc         1 MOL       0.000000
     25 H10         30.4220     4.4320    56.1950 hc         1 MOL       0.000000
     26 H11         29.3360     7.2520    58.3060 h1         1 MOL       0.000000
     27 H12         29.9030     7.1090    56.6330 h1         1 MOL       0.000000
     28 H13         28.7760     5.9440    62.4830 h1         1 MOL       0.000000
     29 H14         28.1880     7.4040    61.6800 h1         1 MOL       0.000000
     30 H15         30.0820     8.5400    62.1030 hc         1 MOL       0.000000
     31 H16         30.4230     7.2550    63.2690 hc         1 MOL       0.000000
     32 H17         31.7320     5.5110    62.6000 ho         1 MOL       0.000000
@<TRIPOS>BOND
     1     1     8 1   
     2     1    10 1   
     3     1    19 1   
     4     2     5 1   
     5     2     1 1   
     6     3     2 1   
     7     3    20 1   
     8     3    21 1   
     9     3    22 1   
    10     4     2 1   
    11     4    23 1   
    12     4    24 1   
    13     4    25 1   
    14     5     6 1   
    15     5    26 1   
    16     5    27 1   
    17     7     6 1   
    18     9     8 1   
    19    10    12 1   
    20    10    11 2   
    21    12    14 1   
    22    13    12 1   
    23    14    15 1   
    24    14    28 1   
    25    14    29 1   
    26    15    30 1   
    27    15    31 1   
    28    16    18 1   
    29    16    15 1   
    30    17    16 2   
    31    18    32 1   
@<TRIPOS>SUBSTRUCTURE
     1 MOL         1 TEMP              0 ****  ****    0 ROOT
