@<TRIPOS>MOLECULE
MOL
   32    31     1     0     0
SMALL
No Charge or Current Charge


@<TRIPOS>ATOM
      1 C1          30.3590     5.8720    60.6880 c3         1 MOL       0.000000
      2 C2          30.2030     6.3870    59.0890 c3         1 MOL       0.000000
      3 C3          31.4020     7.3840    58.7890 c3         1 MOL       0.000000
      4 C4          28.8650     7.0220    58.8130 c3         1 MOL       0.000000
      5 C5          30.3050     5.1860    58.0570 c3         1 MOL       0.000000
      6 O1          30.5130     3.9250    58.6900 oh         1 MOL       0.000000
      7 H1          29.7340     3.2910    58.4570 ho         1 MOL       0.000000
      8 O2          31.7350     5.4290    60.9110 oh         1 MOL       0.000000
      9 H2          32.2930     6.2140    61.2780 ho         1 MOL       0.000000
     10 C6          30.0880     7.0290    61.7580 c          1 MOL       0.000000
     11 O3          28.8380     7.2260    62.1860 o          1 MOL       0.000000
     12 N1          31.0990     7.7460    62.2200 n          1 MOL       0.000000
     13 H3          32.0320     7.5940    61.8130 hn         1 MOL       0.000000
     14 C7          30.9570     8.7650    63.3020 c3         1 MOL       0.000000
     15 C8          32.3370     9.2510    63.8370 c3         1 MOL       0.000000
     16 C9          33.3180     8.0820    64.0790 c          1 MOL       0.000000
     17 O4          33.7150     7.2660    63.1070 o          1 MOL       0.000000
     18 O5          33.7180     7.9630    65.3360 oh         1 MOL       0.000000
     19 H4          29.6340     5.0970    60.8230 h1         1 MOL       0.000000
     20 H5          31.3330     7.7310    57.7790 hc         1 MOL       0.000000
     21 H6          32.3330     6.8750    58.9280 hc         1 MOL       0.000000
     22 H7          31.3480     8.2180    59.4570 hc         1 MOL       0.000000
     23 H8          28.8200     7.3290    57.7890 hc         1 MOL       0.000000
     24 H9          28.7370     7.8750    59.4470 hc         1 MOL       0.000000
     25 H10         28.0870     6.3140    59.0070 hc         1 MOL       0.000000
     26 H11         29.3950     5.1400    57.4960 h1         1 MOL       0.000000
     27 H12         31.1510     5.3730    57.4300 h1         1 MOL       0.000000
     28 H13         30.4060     8.3340    64.1120 h1         1 MOL       0.000000
     29 H14         30.4470     9.6110    62.8910 h1         1 MOL       0.000000
     30 H15         32.1850     9.7690    64.7610 hc         1 MOL       0.000000
     31 H16         32.7680     9.8910    63.0960 hc         1 MOL       0.000000
     32 H17         33.4090     8.5640    65.9850 ho         1 MOL       0.000000
@<TRIPOS>BOND
     1     1     8 1   
     2     1    10 1   
     3     1    19 1   
     4     2     1 1   
     5     3     2 1   
     6     3    20 1   
     7     3    21 1   
     8     3    22 1   
     9     4     2 1   
    10     4    23 1   
    11     4    24 1   
    12     4    25 1   
    13     5     6 1   
    14     5     2 1   
    15     5    26 1   
    16     5    27 1   
    17     7     6 1   
    18     8     9 1   
    19    10    11 2   
    20    10    12 1   
    21    12    14 1   
    22    13    12 1   
    23    14    15 1   
    24    14    28 1   
    25    14    29 1   
    26    15    16 1   
    27    15    30 1   
    28    15    31 1   
    29    16    18 1   
    30    17    16 2   
    31    18    32 1   
@<TRIPOS>SUBSTRUCTURE
     1 MOL         1 TEMP              0 ****  ****    0 ROOT
