@<TRIPOS>MOLECULE
MOL
   32    31     1     0     0
SMALL
No Charge or Current Charge


@<TRIPOS>ATOM
      1 C1          29.7910     5.0520    59.2000 c3         1 MOL       0.000000
      2 C2          28.8370     5.7390    57.9910 c3         1 MOL       0.000000
      3 C3          27.3320     5.3130    58.2700 c3         1 MOL       0.000000
      4 C4          29.2820     5.3450    56.6060 c3         1 MOL       0.000000
      5 C5          28.8990     7.3250    58.0030 c3         1 MOL       0.000000
      6 O1          28.0750     7.9210    57.0030 oh         1 MOL       0.000000
      7 H1          27.0990     7.6200    57.1390 ho         1 MOL       0.000000
      8 O2          30.3950     3.8220    58.6870 oh         1 MOL       0.000000
      9 H2          29.7350     3.0410    58.8040 ho         1 MOL       0.000000
     10 C6          31.0070     5.9850    59.6560 c          1 MOL       0.000000
     11 O3          32.0350     6.1530    58.8190 o          1 MOL       0.000000
     12 N1          30.9660     6.5910    60.8310 n          1 MOL       0.000000
     13 H3          30.1800     6.3790    61.4620 hn         1 MOL       0.000000
     14 C7          31.9980     7.5680    61.2890 c3         1 MOL       0.000000
     15 C8          32.8970     6.9850    62.4210 c3         1 MOL       0.000000
     16 C9          33.2540     8.0430    63.4900 c          1 MOL       0.000000
     17 O4          34.3000     7.9160    64.3010 oh         1 MOL       0.000000
     18 O5          32.4250     9.0750    63.5280 o          1 MOL       0.000000
     19 H4          29.1420     4.8920    60.0360 h1         1 MOL       0.000000
     20 H5          26.6970     5.7340    57.5180 hc         1 MOL       0.000000
     21 H6          27.0320     5.6720    59.2320 hc         1 MOL       0.000000
     22 H7          27.2530     4.2460    58.2470 hc         1 MOL       0.000000
     23 H8          28.6450     5.8070    55.8820 hc         1 MOL       0.000000
     24 H9          29.2270     4.2810    56.5030 hc         1 MOL       0.000000
     25 H10         30.2910     5.6670    56.4500 hc         1 MOL       0.000000
     26 H11         28.5760     7.6720    58.9620 h1         1 MOL       0.000000
     27 H12         29.9100     7.6080    57.7960 h1         1 MOL       0.000000
     28 H13         31.5050     8.4440    61.6570 h1         1 MOL       0.000000
     29 H14         32.6270     7.7980    60.4550 h1         1 MOL       0.000000
     30 H15         33.8020     6.6160    61.9860 hc         1 MOL       0.000000
     31 H16         32.3490     6.2030    62.9040 hc         1 MOL       0.000000
     32 H17         34.8570     7.1650    64.2340 ho         1 MOL       0.000000
@<TRIPOS>BOND
     1     1    10 1   
     2     1    19 1   
     3     2     5 1   
     4     2     3 1   
     5     2     1 1   
     6     3    20 1   
     7     3    21 1   
     8     3    22 1   
     9     4     2 1   
    10     4    23 1   
    11     4    24 1   
    12     4    25 1   
    13     5    26 1   
    14     5    27 1   
    15     6     7 1   
    16     6     5 1   
    17     8     9 1   
    18     8     1 1   
    19    10    12 1   
    20    11    10 2   
    21    12    14 1   
    22    12    13 1   
    23    14    15 1   
    24    14    28 1   
    25    14    29 1   
    26    15    16 1   
    27    15    30 1   
    28    15    31 1   
    29    16    18 2   
    30    16    17 1   
    31    17    32 1   
@<TRIPOS>SUBSTRUCTURE
     1 MOL         1 TEMP              0 ****  ****    0 ROOT
