@<TRIPOS>MOLECULE
MOL
   55    58     1     0     0
SMALL
No Charge or Current Charge


@<TRIPOS>ATOM
      1 C1         -17.4690    -5.2900    22.3740 ca         1 MOL       0.000000
      2 C2         -16.8260    -5.3750    21.1300 ca         1 MOL       0.000000
      3 C3         -16.4480    -4.1950    20.4260 ca         1 MOL       0.000000
      4 C4         -16.6620    -2.9140    20.9320 ca         1 MOL       0.000000
      5 C5         -17.3340    -2.8260    22.2230 ca         1 MOL       0.000000
      6 C6         -17.7320    -4.0060    22.9060 ca         1 MOL       0.000000
      7 N1         -15.9160    -4.0930    19.1470 na         1 MOL       0.000000
      8 C7         -15.7600    -2.7390    18.8930 cc         1 MOL       0.000000
      9 C8         -16.1810    -1.9420    20.0310 cd         1 MOL       0.000000
     10 C9         -17.5760    -1.5150    22.8540 c3         1 MOL       0.000000
     11 C10        -15.7430    -5.2250    18.2270 c3         1 MOL       0.000000
     12 C11        -14.3050    -5.5630    17.9270 ca         1 MOL       0.000000
     13 C12        -13.7220    -5.5390    16.6420 ca         1 MOL       0.000000
     14 C13        -12.4250    -6.0510    16.4490 ca         1 MOL       0.000000
     15 C14        -11.7250    -6.5520    17.5640 ca         1 MOL       0.000000
     16 C15        -12.3010    -6.4990    18.8550 ca         1 MOL       0.000000
     17 C16        -13.5870    -6.0080    19.0270 ca         1 MOL       0.000000
     18 C17        -11.6150    -6.9070    20.0690 ce         1 MOL       0.000000
     19 N2         -11.5850    -6.0040    21.0410 nh         1 MOL       0.000000
     20 H1         -11.1160    -6.2220    21.9310 hn         1 MOL       0.000000
     21 H2         -12.0320    -5.0860    20.9040 hn         1 MOL       0.000000
     22 N3         -11.0900    -8.1240    20.2300 nh         1 MOL       0.000000
     23 H3         -11.4080    -8.9040    19.6380 hn         1 MOL       0.000000
     24 H4         -10.3680    -8.2830    20.9470 hn         1 MOL       0.000000
     25 C18        -15.2840    -2.1970    17.6710 c          1 MOL       0.000000
     26 N4         -16.1410    -2.1150    16.6240 n          1 MOL       0.000000
     27 H5         -17.1140    -2.4350    16.7260 hn         1 MOL       0.000000
     28 O1         -14.1120    -1.8290    17.5570 o          1 MOL       0.000000
     29 C19        -15.6770    -1.5700    15.3480 c3         1 MOL       0.000000
     30 C20        -16.7390    -1.2630    14.2940 ca         1 MOL       0.000000
     31 C21        -16.3990    -0.4840    13.1770 ca         1 MOL       0.000000
     32 C22        -17.3600    -0.0700    12.2410 ca         1 MOL       0.000000
     33 C23        -18.6960    -0.4660    12.4230 ca         1 MOL       0.000000
     34 Cl1        -16.9040     1.0010    10.9250 cl         1 MOL       0.000000
     35 C24        -19.0670    -1.2520    13.5310 ca         1 MOL       0.000000
     36 C25        -18.0770    -1.6530    14.4540 ca         1 MOL       0.000000
     37 Cl2        -20.7520    -1.6830    13.8200 cl         1 MOL       0.000000
     38 H6         -17.7430    -6.1420    22.8880 ha         1 MOL       0.000000
     39 H7         -16.6250    -6.3010    20.7210 ha         1 MOL       0.000000
     40 H8         -18.2240    -3.9250    23.8100 ha         1 MOL       0.000000
     41 H9         -16.1390    -0.9180    20.1510 ha         1 MOL       0.000000
     42 H10        -17.2190    -0.7380    22.2110 hc         1 MOL       0.000000
     43 H11        -17.0590    -1.4690    23.7900 hc         1 MOL       0.000000
     44 H12        -18.6250    -1.3870    23.0190 hc         1 MOL       0.000000
     45 H13        -16.2060    -6.0850    18.6630 h1         1 MOL       0.000000
     46 H14        -16.1920    -4.9380    17.2990 h1         1 MOL       0.000000
     47 H15        -14.2460    -5.1460    15.8440 ha         1 MOL       0.000000
     48 H16        -11.9960    -6.0590    15.5100 ha         1 MOL       0.000000
     49 H17        -10.7860    -6.9600    17.4380 ha         1 MOL       0.000000
     50 H18        -14.0070    -5.9740    19.9690 ha         1 MOL       0.000000
     51 H19        -15.1580    -0.6580    15.5570 h1         1 MOL       0.000000
     52 H20        -15.0770    -2.3450    14.9180 h1         1 MOL       0.000000
     53 H21        -15.4140    -0.2080    13.0400 ha         1 MOL       0.000000
     54 H22        -19.4120    -0.1780    11.7380 ha         1 MOL       0.000000
     55 H23        -18.3420    -2.2420    15.2590 ha         1 MOL       0.000000
@<TRIPOS>BOND
     1     1     6 ar  
     2     1    38 1   
     3     2     1 ar  
     4     2    39 1   
     5     3     4 ar  
     6     3     2 ar  
     7     4     5 ar  
     8     5    10 1   
     9     5     6 ar  
    10     6    40 1   
    11     7     3 1   
    12     8     7 1   
    13     8     9 2   
    14     9     4 1   
    15     9    41 1   
    16    10    42 1   
    17    10    43 1   
    18    10    44 1   
    19    11     7 1   
    20    11    45 1   
    21    11    46 1   
    22    12    11 1   
    23    12    17 ar  
    24    13    12 ar  
    25    13    47 1   
    26    14    13 ar  
    27    14    15 ar  
    28    14    48 1   
    29    15    16 ar  
    30    15    49 1   
    31    16    17 ar  
    32    16    18 1   
    33    17    50 1   
    34    18    22 1   
    35    18    19 2   
    36    19    20 1   
    37    21    19 1   
    38    22    24 1   
    39    23    22 1   
    40    25     8 1   
    41    26    27 1   
    42    26    25 1   
    43    28    25 2   
    44    29    26 1   
    45    29    51 1   
    46    29    52 1   
    47    30    36 ar  
    48    30    29 1   
    49    31    30 ar  
    50    31    53 1   
    51    32    33 ar  
    52    32    31 ar  
    53    33    35 ar  
    54    33    54 1   
    55    34    32 1   
    56    35    37 1   
    57    35    36 ar  
    58    36    55 1   
@<TRIPOS>SUBSTRUCTURE
     1 MOL         1 TEMP              0 ****  ****    0 ROOT
