@<TRIPOS>MOLECULE
MOL
   55    58     1     0     0
SMALL
No Charge or Current Charge


@<TRIPOS>ATOM
      1 C1         -18.2940     0.2600    23.8250 ca         1 MOL       0.000000
      2 C2         -17.5670    -0.7270    23.1440 ca         1 MOL       0.000000
      3 C3         -17.4650    -0.7060    21.7230 ca         1 MOL       0.000000
      4 C4         -18.0450     0.2930    20.9420 ca         1 MOL       0.000000
      5 C5         -18.8040     1.3170    21.6480 ca         1 MOL       0.000000
      6 C6         -18.9240     1.2730    23.0640 ca         1 MOL       0.000000
      7 N1         -16.8900    -1.6560    20.8900 na         1 MOL       0.000000
      8 C7         -17.0810    -1.2060    19.5920 cc         1 MOL       0.000000
      9 C8         -17.7750     0.0670    19.5760 cd         1 MOL       0.000000
     10 C9         -19.4280     2.4310    20.9100 c3         1 MOL       0.000000
     11 C10        -16.3610    -2.9480    21.3450 c3         1 MOL       0.000000
     12 C11        -17.4220    -3.9610    21.6920 ca         1 MOL       0.000000
     13 C12        -17.5120    -4.6450    22.9240 ca         1 MOL       0.000000
     14 C13        -18.4270    -5.7050    23.0740 ca         1 MOL       0.000000
     15 C14        -19.2590    -6.0370    21.9860 ca         1 MOL       0.000000
     16 C15        -19.2010    -5.2900    20.7860 ca         1 MOL       0.000000
     17 C16        -18.2820    -4.2600    20.6460 ca         1 MOL       0.000000
     18 C17        -20.0840    -5.5050    19.6520 ce         1 MOL       0.000000
     19 N2         -19.9280    -4.6630    18.6380 nh         1 MOL       0.000000
     20 H1         -20.5180    -4.7530    17.7990 hn         1 MOL       0.000000
     21 H2         -19.2160    -3.9200    18.6900 hn         1 MOL       0.000000
     22 N3         -20.9610    -6.5090    19.5980 nh         1 MOL       0.000000
     23 H3         -21.7950    -6.4330    18.9970 hn         1 MOL       0.000000
     24 H4         -20.8060    -7.3610    20.1560 hn         1 MOL       0.000000
     25 C18        -16.6800    -1.9120    18.4280 c          1 MOL       0.000000
     26 N4         -15.3990    -1.7820    18.0030 n          1 MOL       0.000000
     27 H5         -14.7400    -1.1870    18.5230 hn         1 MOL       0.000000
     28 O1         -17.4830    -2.6120    17.8040 o          1 MOL       0.000000
     29 C19        -14.9580    -2.4900    16.8010 c3         1 MOL       0.000000
     30 C20        -14.2050    -3.8030    17.0020 ca         1 MOL       0.000000
     31 C21        -14.4970    -4.6020    18.1190 ca         1 MOL       0.000000
     32 C22        -13.7540    -5.7560    18.4190 ca         1 MOL       0.000000
     33 C23        -12.7040    -6.1260    17.5630 ca         1 MOL       0.000000
     34 Cl1        -14.0840    -6.6560    19.8920 cl         1 MOL       0.000000
     35 C24        -12.3910    -5.3480    16.4320 ca         1 MOL       0.000000
     36 C25        -13.1560    -4.1940    16.1560 ca         1 MOL       0.000000
     37 Cl2        -11.0210    -5.7510    15.3980 cl         1 MOL       0.000000
     38 H6         -18.3680     0.2480    24.8540 ha         1 MOL       0.000000
     39 H7         -17.1010    -1.4770    23.6780 ha         1 MOL       0.000000
     40 H8         -19.4820     1.9950    23.5470 ha         1 MOL       0.000000
     41 H9         -18.0130     0.6610    18.7660 ha         1 MOL       0.000000
     42 H10        -19.2440     2.3120    19.8630 hc         1 MOL       0.000000
     43 H11        -19.0100     3.3580    21.2430 hc         1 MOL       0.000000
     44 H12        -20.4830     2.4310    21.0890 hc         1 MOL       0.000000
     45 H13        -15.7620    -2.7780    22.2150 h1         1 MOL       0.000000
     46 H14        -15.8010    -3.3560    20.5300 h1         1 MOL       0.000000
     47 H15        -16.9080    -4.3680    23.7140 ha         1 MOL       0.000000
     48 H16        -18.4870    -6.2280    23.9620 ha         1 MOL       0.000000
     49 H17        -19.9150    -6.8300    22.0650 ha         1 MOL       0.000000
     50 H18        -18.2390    -3.7190    19.7680 ha         1 MOL       0.000000
     51 H19        -15.8280    -2.7040    16.2160 h1         1 MOL       0.000000
     52 H20        -14.2510    -1.8340    16.3380 h1         1 MOL       0.000000
     53 H21        -15.2790    -4.3340    18.7370 ha         1 MOL       0.000000
     54 H22        -12.1560    -6.9770    17.7650 ha         1 MOL       0.000000
     55 H23        -12.9410    -3.6300    15.3190 ha         1 MOL       0.000000
@<TRIPOS>BOND
     1     1    38 1   
     2     2     1 ar  
     3     2    39 1   
     4     3     2 ar  
     5     4     5 ar  
     6     4     3 ar  
     7     5     6 ar  
     8     6     1 ar  
     9     6    40 1   
    10     7    11 1   
    11     7     3 1   
    12     8     7 1   
    13     9     8 2   
    14     9     4 1   
    15     9    41 1   
    16    10     5 1   
    17    10    42 1   
    18    10    43 1   
    19    10    44 1   
    20    11    12 1   
    21    11    45 1   
    22    11    46 1   
    23    12    13 ar  
    24    13    14 ar  
    25    13    47 1   
    26    14    48 1   
    27    15    14 ar  
    28    15    49 1   
    29    16    15 ar  
    30    17    16 ar  
    31    17    12 ar  
    32    17    50 1   
    33    18    16 1   
    34    19    21 1   
    35    19    18 2   
    36    20    19 1   
    37    22    18 1   
    38    22    24 1   
    39    23    22 1   
    40    25     8 1   
    41    26    25 1   
    42    26    27 1   
    43    28    25 2   
    44    29    30 1   
    45    29    26 1   
    46    29    51 1   
    47    29    52 1   
    48    30    31 ar  
    49    31    32 ar  
    50    31    53 1   
    51    32    34 1   
    52    33    32 ar  
    53    33    54 1   
    54    35    33 ar  
    55    36    35 ar  
    56    36    30 ar  
    57    36    55 1   
    58    37    35 1   
@<TRIPOS>SUBSTRUCTURE
     1 MOL         1 TEMP              0 ****  ****    0 ROOT
