@<TRIPOS>MOLECULE
MOL
   33    31     1     0     0
SMALL
No Charge or Current Charge


@<TRIPOS>ATOM
      1 N1          56.1860    22.1960    39.8320 n4         1 MOL       0.000000
      2 H1          56.5580    22.6040    40.6710 hn         1 MOL       0.000000
      3 H2          55.7010    21.3090    40.0500 hn         1 MOL       0.000000
      4 C1          57.2670    21.9930    38.7600 c3         1 MOL       0.000000
      5 C2          55.0810    22.9270    39.2350 c1         1 MOL       0.000000
      6 H3          54.6620    23.6010    40.0070 hx         1 MOL       0.000000
      7 C3          55.6730    23.6790    38.0700 c3         1 MOL       0.000000
      8 C4          56.5760    22.6440    37.4730 c3         1 MOL       0.000000
      9 C5          53.8500    22.0090    38.8720 c          1 MOL       0.000000
     10 O1          52.7680    22.6130    38.6970 o          1 MOL       0.000000
     11 O2          54.0810    20.7670    38.7600 oh         1 MOL       0.000000
     12 C6          56.4850    25.0240    38.4150 c3         1 MOL       0.000000
     13 C7          56.1180    25.5680    39.8020 c          1 MOL       0.000000
     14 O3          55.0670    25.1110    40.2720 o          1 MOL       0.000000
     15 O4          56.8680    26.4040    40.3550 oh         1 MOL       0.000000
     16 C8          57.4910    23.0680    36.2540 c2         1 MOL       0.000000
     17 C9          58.6710    23.5170    36.5180 c2         1 MOL       0.000000
     18 C10         56.9520    22.9270    34.8810 c3         1 MOL       0.000000
     19 H4          58.1720    22.5040    39.0170 hx         1 MOL       0.000000
     20 H5          57.5590    20.9720    38.6260 hx         1 MOL       0.000000
     21 H6          55.2420    23.2900    38.9690 hc         1 MOL       0.000000
     22 H7          54.9090    23.9150    37.3590 hc         1 MOL       0.000000
     23 H8          56.0380    21.9160    36.9020 hc         1 MOL       0.000000
     24 H9          54.6560    22.5950    39.1410 h5         1 MOL       0.000000
     25 H10         54.9420    20.4340    38.9190 ho         1 MOL       0.000000
     26 H11         56.2550    25.7660    37.6790 hc         1 MOL       0.000000
     27 H12         57.5300    24.7930    38.4130 hc         1 MOL       0.000000
     28 H13         57.6470    26.6940    39.9220 ho         1 MOL       0.000000
     29 H14         59.2980    23.8040    35.7500 ha         1 MOL       0.000000
     30 H15         58.9880    23.5890    37.4970 ha         1 MOL       0.000000
     31 H16         57.6860    23.2530    34.1740 hc         1 MOL       0.000000
     32 H17         56.0700    23.5250    34.7810 hc         1 MOL       0.000000
     33 H18         56.7100    21.9010    34.6960 hc         1 MOL       0.000000
@<TRIPOS>BOND
     1     1     3 1   
     2     1     2 1   
     3     4     1 1   
     4     4    19 1   
     5     4    20 1   
     6     5     1 1   
     7     5     6 1   
     8     7    12 1   
     9     7    21 1   
    10     7    22 1   
    11     8     7 1   
    12     8     4 1   
    13     8    23 1   
    14     9    24 1   
    15    10     9 2   
    16    11     9 1   
    17    11    25 1   
    18    12    13 1   
    19    12    26 1   
    20    12    27 1   
    21    13    14 2   
    22    13    15 1   
    23    15    28 1   
    24    16    17 2   
    25    16     8 1   
    26    17    29 1   
    27    17    30 1   
    28    18    16 1   
    29    18    31 1   
    30    18    32 1   
    31    18    33 1   
@<TRIPOS>SUBSTRUCTURE
     1 MOL         1 TEMP              0 ****  ****    0 ROOT
