@<TRIPOS>MOLECULE
MOL
   33    31     1     0     0
SMALL
No Charge or Current Charge


@<TRIPOS>ATOM
      1 N1          57.4440    23.6670    27.7070 n4         1 MOL       0.000000
      2 H1          57.6510    24.3220    26.9740 hn         1 MOL       0.000000
      3 H2          56.7400    22.9810    27.3860 hn         1 MOL       0.000000
      4 C1          56.9920    24.3680    28.9960 c3         1 MOL       0.000000
      5 C2          58.5270    22.7560    28.0370 c1         1 MOL       0.000000
      6 H3          59.2390    22.7540    27.1900 hx         1 MOL       0.000000
      7 C3          59.1390    23.2960    29.3050 c3         1 MOL       0.000000
      8 C4          57.9200    23.6660    30.0930 c3         1 MOL       0.000000
      9 C5          58.0720    21.2480    28.1120 c          1 MOL       0.000000
     10 O1          58.9820    20.4290    28.3690 o          1 MOL       0.000000
     11 O2          56.8360    21.0180    27.9420 oh         1 MOL       0.000000
     12 C6          60.1310    24.5520    29.1530 c3         1 MOL       0.000000
     13 C7          60.9700    24.4600    27.8710 c          1 MOL       0.000000
     14 O3          60.4210    23.8540    26.9400 o          1 MOL       0.000000
     15 O4          62.1070    24.9800    27.8390 oh         1 MOL       0.000000
     16 C8          58.1240    24.3850    31.4870 c2         1 MOL       0.000000
     17 C9          58.6520    23.6990    32.4430 c2         1 MOL       0.000000
     18 C10         57.7030    25.8000    31.6230 c3         1 MOL       0.000000
     19 H4          55.9550    24.1920    29.1920 hx         1 MOL       0.000000
     20 H5          57.0870    25.4330    28.9660 hx         1 MOL       0.000000
     21 H6          59.6530    22.5030    29.8070 hc         1 MOL       0.000000
     22 H7          58.8320    22.9850    28.3280 hc         1 MOL       0.000000
     23 H8          57.4420    22.8140    30.5290 hc         1 MOL       0.000000
     24 H9          58.3630    22.2350    28.0280 h5         1 MOL       0.000000
     25 H10         56.2500    21.7240    27.7530 ho         1 MOL       0.000000
     26 H11         59.5510    25.4510    29.1240 hc         1 MOL       0.000000
     27 H12         60.7980    24.5530    29.9890 hc         1 MOL       0.000000
     28 H13         62.4420    25.4200    28.5950 ho         1 MOL       0.000000
     29 H14         58.9240    22.7160    32.2840 ha         1 MOL       0.000000
     30 H15         58.8030    24.1330    33.3670 ha         1 MOL       0.000000
     31 H16         57.2970    26.1420    30.6940 hc         1 MOL       0.000000
     32 H17         58.5490    26.4000    31.8840 hc         1 MOL       0.000000
     33 H18         56.9590    25.8790    32.3880 hc         1 MOL       0.000000
@<TRIPOS>BOND
     1     1     5 1   
     2     1     4 1   
     3     2     1 1   
     4     3     1 1   
     5     4     8 1   
     6     4    19 1   
     7     4    20 1   
     8     6     5 1   
     9     7     8 1   
    10     7    21 1   
    11     7    22 1   
    12     8    16 1   
    13     8    23 1   
    14     9    10 2   
    15     9    24 1   
    16    11     9 1   
    17    11    25 1   
    18    12     7 1   
    19    12    26 1   
    20    12    27 1   
    21    13    12 1   
    22    14    13 2   
    23    15    13 1   
    24    15    28 1   
    25    16    18 1   
    26    16    17 2   
    27    17    29 1   
    28    17    30 1   
    29    18    31 1   
    30    18    32 1   
    31    18    33 1   
@<TRIPOS>SUBSTRUCTURE
     1 MOL         1 TEMP              0 ****  ****    0 ROOT
