@<TRIPOS>MOLECULE
MOL
   33    31     1     0     0
SMALL
No Charge or Current Charge


@<TRIPOS>ATOM
      1 N1          56.8600    22.0000    39.9670 n4         1 MOL       0.000000
      2 H1          57.0200    22.6180    40.7410 hn         1 MOL       0.000000
      3 H2          56.8020    21.0210    40.2950 hn         1 MOL       0.000000
      4 C1          57.9260    22.1590    38.8720 c3         1 MOL       0.000000
      5 C2          55.5490    22.1190    39.3500 c1         1 MOL       0.000000
      6 H3          54.8810    22.6320    40.0670 hx         1 MOL       0.000000
      7 C3          55.7650    22.9180    38.0890 c3         1 MOL       0.000000
      8 C4          57.0260    22.3070    37.5590 c3         1 MOL       0.000000
      9 C5          54.8310    20.7310    39.1380 c          1 MOL       0.000000
     10 O1          55.4640    19.7340    39.5530 o          1 MOL       0.000000
     11 O2          53.6800    20.7620    38.6060 oh         1 MOL       0.000000
     12 C6          55.9210    24.5090    38.2580 c3         1 MOL       0.000000
     13 C7          55.3520    24.9960    39.5970 c          1 MOL       0.000000
     14 O3          54.8300    24.1090    40.2870 oh         1 MOL       0.000000
     15 O4          55.4440    26.2050    39.9040 o          1 MOL       0.000000
     16 C8          57.6730    22.9420    36.2620 c2         1 MOL       0.000000
     17 C9          58.7510    23.6350    36.4090 c2         1 MOL       0.000000
     18 C10         57.0160    22.7080    34.9550 c3         1 MOL       0.000000
     19 H4          58.5250    23.0310    39.0350 hx         1 MOL       0.000000
     20 H5          58.6270    21.3510    38.8280 hx         1 MOL       0.000000
     21 H6          55.5400    22.4850    39.0420 hc         1 MOL       0.000000
     22 H7          54.9750    22.7250    37.3940 hc         1 MOL       0.000000
     23 H8          56.8540    21.3610    37.0900 hc         1 MOL       0.000000
     24 H9          55.3050    21.6420    39.2420 h5         1 MOL       0.000000
     25 H10         53.3110    21.5790    38.3350 ho         1 MOL       0.000000
     26 H11         55.3980    24.9950    37.4610 hc         1 MOL       0.000000
     27 H12         56.9640    24.7460    38.2330 hc         1 MOL       0.000000
     28 H13         54.8060    23.2260    39.9750 ho         1 MOL       0.000000
     29 H14         59.2040    24.0660    35.5880 ha         1 MOL       0.000000
     30 H15         59.1610    23.7590    37.3480 ha         1 MOL       0.000000
     31 H16         57.5710    23.2000    34.1840 hc         1 MOL       0.000000
     32 H17         56.0200    23.0980    34.9810 hc         1 MOL       0.000000
     33 H18         56.9820    21.6570    34.7560 hc         1 MOL       0.000000
@<TRIPOS>BOND
     1     1     3 1   
     2     1     2 1   
     3     4     1 1   
     4     4    19 1   
     5     4    20 1   
     6     5     1 1   
     7     5     6 1   
     8     7    12 1   
     9     7    21 1   
    10     7    22 1   
    11     8     7 1   
    12     8     4 1   
    13     8    23 1   
    14     9    10 2   
    15     9    24 1   
    16    11     9 1   
    17    11    25 1   
    18    12    13 1   
    19    12    26 1   
    20    12    27 1   
    21    13    15 2   
    22    13    14 1   
    23    14    28 1   
    24    16    17 2   
    25    16     8 1   
    26    17    29 1   
    27    17    30 1   
    28    18    16 1   
    29    18    31 1   
    30    18    32 1   
    31    18    33 1   
@<TRIPOS>SUBSTRUCTURE
     1 MOL         1 TEMP              0 ****  ****    0 ROOT
