@<TRIPOS>MOLECULE
MOL
   37    36     1     0     0
SMALL
No Charge or Current Charge


@<TRIPOS>ATOM
      1 C1          -2.2890   -35.7700    22.7930 c3         1 MOL       0.000000
      2 C2          -2.6300   -34.4140    22.1510 c3         1 MOL       0.000000
      3 C3          -4.0540   -34.3500    21.5420 c3         1 MOL       0.000000
      4 C4          -5.1280   -35.1670    22.3040 c3         1 MOL       0.000000
      5 N1          -6.1960   -35.5270    21.3680 n4         1 MOL       0.000000
      6 H1          -6.5780   -34.8800    20.7100 hn         1 MOL       0.000000
      7 H2          -5.8760   -36.3410    20.8490 hn         1 MOL       0.000000
      8 H3          -6.9080   -35.9890    21.9340 hn         1 MOL       0.000000
      9 C5          -5.6750   -34.3710    23.4700 c          1 MOL       0.000000
     10 O1          -5.0190   -33.4850    24.0130 oh         1 MOL       0.000000
     11 O2          -6.8040   -34.6730    23.8570 o          1 MOL       0.000000
     12 N2          -1.1700   -35.6080    23.7730 nh         1 MOL       0.000000
     13 C6          -1.2760   -35.1380    25.0120 cz         1 MOL       0.000000
     14 N3          -2.4120   -34.7420    25.5590 nh         1 MOL       0.000000
     15 N4          -0.1750   -35.0790    25.7100 nh         1 MOL       0.000000
     16 H4          -3.2640   -35.3140    25.4710 hn         1 MOL       0.000000
     17 H5          -0.1970   -34.7230    26.6770 hn         1 MOL       0.000000
     18 H6           0.7150   -35.3880    25.2960 hn         1 MOL       0.000000
     19 H7          -0.2300   -35.8880    23.4590 hn         1 MOL       0.000000
     20 C7          -2.4370   -33.4560    26.3020 c3         1 MOL       0.000000
     21 C8          -2.6170   -33.7280    27.8150 c3         1 MOL       0.000000
     22 C9          -1.5250   -32.9740    28.6150 c3         1 MOL       0.000000
     23 H8          -1.9940   -36.4590    22.0290 h1         1 MOL       0.000000
     24 H9          -3.1520   -36.1420    23.3050 h1         1 MOL       0.000000
     25 H10         -2.5500   -33.6560    22.9020 hc         1 MOL       0.000000
     26 H11         -1.9400   -34.2680    21.3460 hc         1 MOL       0.000000
     27 H12         -4.0040   -34.7210    20.5400 hc         1 MOL       0.000000
     28 H13         -4.3590   -33.3260    21.6000 hc         1 MOL       0.000000
     29 H14         -4.6890   -36.0580    22.7020 hx         1 MOL       0.000000
     30 H15         -4.1620   -33.2760    23.6970 ho         1 MOL       0.000000
     31 H16         -3.2510   -32.8580    25.9490 h1         1 MOL       0.000000
     32 H17         -1.5140   -32.9380    26.1430 h1         1 MOL       0.000000
     33 H18         -2.5320   -34.7780    28.0000 hc         1 MOL       0.000000
     34 H19         -3.5830   -33.3860    28.1240 hc         1 MOL       0.000000
     35 H20         -0.5580   -33.3150    28.3080 hc         1 MOL       0.000000
     36 H21         -1.6540   -33.1630    29.6600 hc         1 MOL       0.000000
     37 H22         -1.6080   -31.9240    28.4300 hc         1 MOL       0.000000
@<TRIPOS>BOND
     1     1    12 1   
     2     1    23 1   
     3     1    24 1   
     4     2     1 1   
     5     2    25 1   
     6     2    26 1   
     7     3     2 1   
     8     3     4 1   
     9     3    27 1   
    10     3    28 1   
    11     4     9 1   
    12     4    29 1   
    13     5     8 1   
    14     5     4 1   
    15     6     5 1   
    16     7     5 1   
    17     9    11 2   
    18     9    10 1   
    19    10    30 1   
    20    12    13 2   
    21    13    14 1   
    22    13    15 1   
    23    14    20 1   
    24    15    17 1   
    25    16    14 1   
    26    18    15 1   
    27    19    12 1   
    28    20    21 1   
    29    20    31 1   
    30    20    32 1   
    31    21    22 1   
    32    21    33 1   
    33    21    34 1   
    34    22    35 1   
    35    22    36 1   
    36    22    37 1   
@<TRIPOS>SUBSTRUCTURE
     1 MOL         1 TEMP              0 ****  ****    0 ROOT
