@<TRIPOS>MOLECULE
MOL
   37    36     1     0     0
SMALL
No Charge or Current Charge


@<TRIPOS>ATOM
      1 C1          -2.7730   -34.2110    22.1890 c3         1 MOL       0.000000
      2 C2          -1.8050   -35.3450    22.5670 c3         1 MOL       0.000000
      3 C3          -2.0080   -35.8870    24.0050 c3         1 MOL       0.000000
      4 C4          -1.5750   -34.9210    25.1360 c3         1 MOL       0.000000
      5 N1          -0.6310   -35.6180    26.0140 n4         1 MOL       0.000000
      6 H1           0.0780   -35.1420    26.5300 hn         1 MOL       0.000000
      7 H2          -1.1840   -36.1570    26.6770 hn         1 MOL       0.000000
      8 H3          -0.2710   -36.3960    25.4620 hn         1 MOL       0.000000
      9 C5          -2.7810   -34.4360    25.9130 c          1 MOL       0.000000
     10 O1          -2.7110   -33.4850    26.6880 oh         1 MOL       0.000000
     11 O2          -3.8290   -35.0580    25.7400 o          1 MOL       0.000000
     12 N2          -3.9060   -34.7520    21.3750 nh         1 MOL       0.000000
     13 C6          -5.1960   -34.6920    21.6900 cz         1 MOL       0.000000
     14 N3          -5.6630   -34.1300    22.7910 nh         1 MOL       0.000000
     15 N4          -6.0310   -35.2250    20.8400 nh         1 MOL       0.000000
     16 H4          -5.3240   -33.2060    23.0930 hn         1 MOL       0.000000
     17 H5          -7.0430   -35.2070    21.0320 hn         1 MOL       0.000000
     18 H6          -5.6780   -35.6620    19.9770 hn         1 MOL       0.000000
     19 H7          -3.6640   -35.2140    20.4870 hn         1 MOL       0.000000
     20 C7          -6.6880   -34.8560    23.5840 c3         1 MOL       0.000000
     21 C8          -6.9850   -34.0830    24.8920 c3         1 MOL       0.000000
     22 C9          -8.3280   -34.5680    25.4930 c3         1 MOL       0.000000
     23 H8          -3.1600   -33.7640    23.0810 h1         1 MOL       0.000000
     24 H9          -2.2470   -33.4790    21.6130 h1         1 MOL       0.000000
     25 H10         -0.8040   -34.9760    22.4840 hc         1 MOL       0.000000
     26 H11         -1.9990   -36.1570    21.8980 hc         1 MOL       0.000000
     27 H12         -1.4400   -36.7890    24.1030 hc         1 MOL       0.000000
     28 H13         -3.0610   -36.0330    24.1230 hc         1 MOL       0.000000
     29 H14         -1.0980   -34.0610    24.7140 hx         1 MOL       0.000000
     30 H15         -1.8990   -33.0300    26.7990 ho         1 MOL       0.000000
     31 H16         -6.3250   -35.8330    23.8240 h1         1 MOL       0.000000
     32 H17         -7.5870   -34.9360    23.0090 h1         1 MOL       0.000000
     33 H18         -7.0480   -33.0360    24.6800 hc         1 MOL       0.000000
     34 H19         -6.1980   -34.2610    25.5950 hc         1 MOL       0.000000
     35 H20         -9.1170   -34.3910    24.7920 hc         1 MOL       0.000000
     36 H21         -8.5280   -34.0330    26.3980 hc         1 MOL       0.000000
     37 H22         -8.2670   -35.6150    25.7040 hc         1 MOL       0.000000
@<TRIPOS>BOND
     1     1     2 1   
     2     1    23 1   
     3     1    24 1   
     4     2     3 1   
     5     2    25 1   
     6     2    26 1   
     7     3     4 1   
     8     3    27 1   
     9     3    28 1   
    10     4     9 1   
    11     4     5 1   
    12     4    29 1   
    13     5     6 1   
    14     5     7 1   
    15     8     5 1   
    16     9    10 1   
    17    10    30 1   
    18    11     9 2   
    19    12    13 2   
    20    12     1 1   
    21    13    14 1   
    22    14    16 1   
    23    14    20 1   
    24    15    17 1   
    25    15    13 1   
    26    18    15 1   
    27    19    12 1   
    28    20    21 1   
    29    20    31 1   
    30    20    32 1   
    31    21    22 1   
    32    21    33 1   
    33    21    34 1   
    34    22    35 1   
    35    22    36 1   
    36    22    37 1   
@<TRIPOS>SUBSTRUCTURE
     1 MOL         1 TEMP              0 ****  ****    0 ROOT
