@<TRIPOS>MOLECULE
MOL
   37    36     1     0     0
SMALL
No Charge or Current Charge


@<TRIPOS>ATOM
      1 C1          -3.6850   -34.2490    21.1740 c3         1 MOL       0.000000
      2 C2          -2.6350   -34.3360    22.2940 c3         1 MOL       0.000000
      3 C3          -2.2420   -35.7880    22.6710 c3         1 MOL       0.000000
      4 C4          -0.7280   -36.0160    22.9060 c3         1 MOL       0.000000
      5 N1          -0.0630   -36.1340    21.6060 n4         1 MOL       0.000000
      6 H1          -0.1900   -36.9210    21.0050 hn         1 MOL       0.000000
      7 H2          -0.2970   -35.2990    21.0750 hn         1 MOL       0.000000
      8 H3           0.9190   -35.9210    21.7830 hn         1 MOL       0.000000
      9 C5          -0.5000   -37.2550    23.7460 c          1 MOL       0.000000
     10 O1          -0.2040   -38.3350    23.2390 o          1 MOL       0.000000
     11 O2          -0.6480   -37.1270    24.9610 oh         1 MOL       0.000000
     12 N2          -4.8240   -35.1770    21.4620 nh         1 MOL       0.000000
     13 C6          -5.8250   -34.9500    22.3050 cz         1 MOL       0.000000
     14 N3          -5.9560   -33.8440    23.0180 nh         1 MOL       0.000000
     15 N4          -6.7240   -35.8900    22.4120 nh         1 MOL       0.000000
     16 H4          -5.8260   -32.9200    22.5830 hn         1 MOL       0.000000
     17 H5          -7.5230   -35.7680    23.0500 hn         1 MOL       0.000000
     18 H6          -6.6350   -36.7530    21.8580 hn         1 MOL       0.000000
     19 H7          -4.8320   -36.0750    20.9590 hn         1 MOL       0.000000
     20 C7          -6.2940   -33.9610    24.4600 c3         1 MOL       0.000000
     21 C8          -5.1760   -34.7350    25.2000 c3         1 MOL       0.000000
     22 C9          -3.9990   -33.7780    25.5150 c3         1 MOL       0.000000
     23 H8          -4.0530   -33.2460    21.1110 h1         1 MOL       0.000000
     24 H9          -3.2310   -34.5290    20.2470 h1         1 MOL       0.000000
     25 H10         -3.0300   -33.8560    23.1650 hc         1 MOL       0.000000
     26 H11         -1.7500   -33.8580    21.9300 hc         1 MOL       0.000000
     27 H12         -2.5560   -36.4340    21.8770 hc         1 MOL       0.000000
     28 H13         -2.7240   -35.9960    23.6030 hc         1 MOL       0.000000
     29 H14         -0.3160   -35.1860    23.4410 hx         1 MOL       0.000000
     30 H15         -0.8740   -36.2910    25.3200 ho         1 MOL       0.000000
     31 H16         -7.2200   -34.4870    24.5660 h1         1 MOL       0.000000
     32 H17         -6.3850   -32.9820    24.8820 h1         1 MOL       0.000000
     33 H18         -4.8280   -35.5350    24.5810 hc         1 MOL       0.000000
     34 H19         -5.5650   -35.1310    26.1150 hc         1 MOL       0.000000
     35 H20         -3.6080   -33.3800    24.6020 hc         1 MOL       0.000000
     36 H21         -3.2290   -34.3160    26.0280 hc         1 MOL       0.000000
     37 H22         -4.3460   -32.9770    26.1330 hc         1 MOL       0.000000
@<TRIPOS>BOND
     1     1    12 1   
     2     1     2 1   
     3     1    23 1   
     4     1    24 1   
     5     2     3 1   
     6     2    25 1   
     7     2    26 1   
     8     3     4 1   
     9     3    27 1   
    10     3    28 1   
    11     4     9 1   
    12     4    29 1   
    13     5     8 1   
    14     5     4 1   
    15     6     5 1   
    16     7     5 1   
    17     9    11 1   
    18    10     9 2   
    19    11    30 1   
    20    12    13 2   
    21    13    15 1   
    22    13    14 1   
    23    14    20 1   
    24    15    17 1   
    25    16    14 1   
    26    18    15 1   
    27    19    12 1   
    28    20    21 1   
    29    20    31 1   
    30    20    32 1   
    31    21    22 1   
    32    21    33 1   
    33    21    34 1   
    34    22    35 1   
    35    22    36 1   
    36    22    37 1   
@<TRIPOS>SUBSTRUCTURE
     1 MOL         1 TEMP              0 ****  ****    0 ROOT
