@<TRIPOS>MOLECULE
MOL
   25    25     1     0     0
SMALL
No Charge or Current Charge


@<TRIPOS>ATOM
      1 C1          49.0440    28.7090    14.1150 c3         1 MOL       0.000000
      2 C2          49.1670    27.3500    14.8060 c3         1 MOL       0.000000
      3 N1          48.2870    27.3650    15.9740 n4         1 MOL       0.000000
      4 H1          47.2950    27.3150    15.8570 hn         1 MOL       0.000000
      5 H2          48.5840    26.6420    16.6170 hn         1 MOL       0.000000
      6 H3          48.5670    28.1940    16.4950 hn         1 MOL       0.000000
      7 C3          50.6050    27.0950    15.1940 c          1 MOL       0.000000
      8 O1          51.4060    28.0110    15.5410 oh         1 MOL       0.000000
      9 O2          50.9390    25.9120    15.1780 o          1 MOL       0.000000
     10 C4          48.2060    28.7330    12.8510 ca         1 MOL       0.000000
     11 C5          46.8810    28.4280    12.9250 ca         1 MOL       0.000000
     12 C6          46.1370    28.4310    11.7770 ca         1 MOL       0.000000
     13 C7          46.6730    28.7760    10.5650 ca         1 MOL       0.000000
     14 C8          48.0270    29.0720    10.4600 ca         1 MOL       0.000000
     15 C9          48.7780    29.0270    11.6190 ca         1 MOL       0.000000
     16 O3          45.9210    28.7400     9.5380 oh         1 MOL       0.000000
     17 H4          44.9360    28.7990     9.8310 ho         1 MOL       0.000000
     18 H5          48.6070    29.3930    14.8120 hc         1 MOL       0.000000
     19 H6          50.0360    28.9720    13.8110 hc         1 MOL       0.000000
     20 H7          48.8740    26.5570    14.1500 hx         1 MOL       0.000000
     21 H8          51.1230    28.9040    15.5430 ho         1 MOL       0.000000
     22 H9          46.4450    28.1980    13.8320 ha         1 MOL       0.000000
     23 H10         45.1410    28.1650    11.8260 ha         1 MOL       0.000000
     24 H11         48.4540    29.3160     9.5530 ha         1 MOL       0.000000
     25 H12         49.7910    29.2170    11.5680 ha         1 MOL       0.000000
@<TRIPOS>BOND
     1     1     2 1   
     2     1    18 1   
     3     1    19 1   
     4     2     7 1   
     5     2     3 1   
     6     2    20 1   
     7     3     6 1   
     8     3     5 1   
     9     4     3 1   
    10     7     8 1   
    11     8    21 1   
    12     9     7 2   
    13    10    11 ar  
    14    10     1 1   
    15    11    22 1   
    16    12    11 ar  
    17    12    23 1   
    18    13    12 ar  
    19    14    13 ar  
    20    14    15 ar  
    21    14    24 1   
    22    15    10 ar  
    23    15    25 1   
    24    16    17 1   
    25    16    13 1   
@<TRIPOS>SUBSTRUCTURE
     1 MOL         1 TEMP              0 ****  ****    0 ROOT
