@<TRIPOS>MOLECULE
MOL
   25    25     1     0     0
SMALL
No Charge or Current Charge


@<TRIPOS>ATOM
      1 C1          48.5040    29.0290    12.6690 c3         1 MOL       0.000000
      2 C2          48.1780    28.4020    11.3130 c3         1 MOL       0.000000
      3 N1          48.9820    29.0870    10.3020 n4         1 MOL       0.000000
      4 H1          48.5390    29.5460     9.5310 hn         1 MOL       0.000000
      5 H2          49.6060    29.7370    10.7630 hn         1 MOL       0.000000
      6 H3          49.6540    28.3860     9.9910 hn         1 MOL       0.000000
      7 C3          46.6990    28.5270    11.0280 c          1 MOL       0.000000
      8 O1          45.8010    28.0810    11.7980 oh         1 MOL       0.000000
      9 O2          46.4260    29.1310     9.9930 o          1 MOL       0.000000
     10 C4          48.3520    28.1170    13.8720 ca         1 MOL       0.000000
     11 C5          47.4370    28.4260    14.8310 ca         1 MOL       0.000000
     12 C6          47.3220    27.6100    15.9220 ca         1 MOL       0.000000
     13 C7          48.0660    26.4680    16.0560 ca         1 MOL       0.000000
     14 C8          49.0210    26.1410    15.1010 ca         1 MOL       0.000000
     15 C9          49.1570    26.9940    14.0220 ca         1 MOL       0.000000
     16 O3          47.9150    25.7660    17.1080 oh         1 MOL       0.000000
     17 H4          48.7980    25.7470    17.6390 ho         1 MOL       0.000000
     18 H5          47.8530    29.8670    12.8080 hc         1 MOL       0.000000
     19 H6          49.5420    29.2860    12.6280 hc         1 MOL       0.000000
     20 H7          48.4120    27.3580    11.3060 hx         1 MOL       0.000000
     21 H8          46.0390    27.6240    12.5810 ho         1 MOL       0.000000
     22 H9          46.8400    29.2620    14.7360 ha         1 MOL       0.000000
     23 H10         46.6540    27.8620    16.6670 ha         1 MOL       0.000000
     24 H11         49.6050    25.2950    15.1940 ha         1 MOL       0.000000
     25 H12         49.8750    26.7920    13.3090 ha         1 MOL       0.000000
@<TRIPOS>BOND
     1     1    10 1   
     2     1    18 1   
     3     1    19 1   
     4     2     1 1   
     5     2    20 1   
     6     3     5 1   
     7     3     2 1   
     8     4     3 1   
     9     6     3 1   
    10     7     2 1   
    11     7     8 1   
    12     8    21 1   
    13     9     7 2   
    14    10    15 ar  
    15    10    11 ar  
    16    11    12 ar  
    17    11    22 1   
    18    12    13 ar  
    19    12    23 1   
    20    13    16 1   
    21    14    13 ar  
    22    14    24 1   
    23    15    14 ar  
    24    15    25 1   
    25    16    17 1   
@<TRIPOS>SUBSTRUCTURE
     1 MOL         1 TEMP              0 ****  ****    0 ROOT
