@<TRIPOS>MOLECULE
MOL
   35    36     1     0     0
SMALL
No Charge or Current Charge


@<TRIPOS>ATOM
      1 C1          -8.6580    51.3700    41.0320 ca         1 MOL       0.000000
      2 N1          -8.0480    52.2580    41.9520 nb         1 MOL       0.000000
      3 C2          -6.9600    51.7610    42.7320 ca         1 MOL       0.000000
      4 C3          -6.3450    52.6600    43.6530 c3         1 MOL       0.000000
      5 N2          -6.4910    50.4320    42.5960 nb         1 MOL       0.000000
      6 C4          -7.1440    49.5730    41.6470 ca         1 MOL       0.000000
      7 N3          -6.7160    48.3060    41.4850 n          1 MOL       0.000000
      8 H1          -5.9280    47.9930    42.0690 hn         1 MOL       0.000000
      9 C5          -7.2400    47.4200    40.6200 c          1 MOL       0.000000
     10 O1          -8.1850    47.5660    39.8210 o          1 MOL       0.000000
     11 N4          -6.5230    46.2780    40.7170 n          1 MOL       0.000000
     12 N5          -8.2150    50.0780    40.8940 nb         1 MOL       0.000000
     13 S1          -6.8180    44.9470    39.7760 sy         1 MOL       0.000000
     14 O2          -7.3470    45.0220    38.4400 o          1 MOL       0.000000
     15 O3          -7.6720    44.5020    40.8630 o          1 MOL       0.000000
     16 C6          -5.4850    43.8420    40.0850 ca         1 MOL       0.000000
     17 C7          -4.5500    44.4400    41.0030 ca         1 MOL       0.000000
     18 C8          -3.3450    43.7020    41.4260 ca         1 MOL       0.000000
     19 C9          -3.1080    42.3420    40.9010 ca         1 MOL       0.000000
     20 C10         -4.0390    41.7720    39.9970 ca         1 MOL       0.000000
     21 C11         -5.2190    42.4920    39.5780 ca         1 MOL       0.000000
     22 Cl1         -6.2810    41.7220    38.4870 cl         1 MOL       0.000000
     23 O4          -9.7580    51.8560    40.2410 os         1 MOL       0.000000
     24 C12        -10.4680    50.9730    39.4060 c3         1 MOL       0.000000
     25 H2          -6.8380    53.6080    43.6090 hc         1 MOL       0.000000
     26 H3          -5.3130    52.7820    43.3970 hc         1 MOL       0.000000
     27 H4          -6.4220    52.2640    44.6440 hc         1 MOL       0.000000
     28 H5          -5.7930    46.2360    41.3760 hn         1 MOL       0.000000
     29 H6          -4.7240    45.3900    41.3670 ha         1 MOL       0.000000
     30 H7          -2.6740    44.1320    42.0820 ha         1 MOL       0.000000
     31 H8          -2.2720    41.8110    41.1900 ha         1 MOL       0.000000
     32 H9          -3.8700    40.8220    39.6300 ha         1 MOL       0.000000
     33 H10        -11.2440    51.5080    38.9000 h1         1 MOL       0.000000
     34 H11        -10.8990    50.1920    39.9970 h1         1 MOL       0.000000
     35 H12         -9.8000    50.5480    38.6860 h1         1 MOL       0.000000
@<TRIPOS>BOND
     1     1     2 ar  
     2     2     3 ar  
     3     3     4 1   
     4     4    25 1   
     5     4    26 1   
     6     4    27 1   
     7     5     3 ar  
     8     6     5 ar  
     9     7     6 1   
    10     7     8 1   
    11     9    11 1   
    12     9     7 1   
    13    10     9 2   
    14    11    28 1   
    15    12     1 ar  
    16    12     6 ar  
    17    13    16 1   
    18    13    11 1   
    19    13    15 2   
    20    14    13 2   
    21    16    17 ar  
    22    17    18 ar  
    23    17    29 1   
    24    18    30 1   
    25    19    18 ar  
    26    19    31 1   
    27    20    19 ar  
    28    20    32 1   
    29    21    20 ar  
    30    21    16 ar  
    31    22    21 1   
    32    23     1 1   
    33    24    23 1   
    34    24    33 1   
    35    24    34 1   
    36    24    35 1   
@<TRIPOS>SUBSTRUCTURE
     1 MOL         1 TEMP              0 ****  ****    0 ROOT
