@<TRIPOS>MOLECULE
MOL
   35    36     1     0     0
SMALL
No Charge or Current Charge


@<TRIPOS>ATOM
      1 C1          -3.7230    42.4660    40.6860 ca         1 MOL       0.000000
      2 N1          -4.0670    41.3550    39.8760 nb         1 MOL       0.000000
      3 C2          -5.1930    41.4900    39.0100 ca         1 MOL       0.000000
      4 C3          -5.5320    40.3710    38.1910 c3         1 MOL       0.000000
      5 N2          -5.9480    42.6860    38.9460 nb         1 MOL       0.000000
      6 C4          -5.5560    43.7830    39.7870 ca         1 MOL       0.000000
      7 N3          -6.2450    44.9390    39.7440 n          1 MOL       0.000000
      8 H1          -7.0500    44.9890    39.1030 hn         1 MOL       0.000000
      9 C5          -5.9630    46.0340    40.4730 c          1 MOL       0.000000
     10 O1          -5.0520    46.2100    41.3050 o          1 MOL       0.000000
     11 N4          -6.8440    46.9970    40.1250 n          1 MOL       0.000000
     12 N5          -4.4490    43.6310    40.6360 nb         1 MOL       0.000000
     13 S1          -6.8050    48.5260    40.7640 sy         1 MOL       0.000000
     14 O2          -5.5920    49.2780    40.9460 o          1 MOL       0.000000
     15 O3          -7.4690    47.9440    41.9180 o          1 MOL       0.000000
     16 C6          -8.2100    49.3530    40.1030 ca         1 MOL       0.000000
     17 C7          -8.6710    48.6750    38.9180 ca         1 MOL       0.000000
     18 C8          -9.8460    49.1760    38.1830 ca         1 MOL       0.000000
     19 C9         -10.5500    50.3770    38.6750 ca         1 MOL       0.000000
     20 C10        -10.0800    51.0310    39.8410 ca         1 MOL       0.000000
     21 C11         -8.9270    50.5460    40.5640 ca         1 MOL       0.000000
     22 Cl1         -8.4370    51.4010    41.9560 cl         1 MOL       0.000000
     23 O4          -2.5920    42.3460    41.5670 os         1 MOL       0.000000
     24 C12         -2.6140    42.9670    42.8300 c3         1 MOL       0.000000
     25 H2          -6.3890    40.6100    37.5970 hc         1 MOL       0.000000
     26 H3          -5.7520    39.5280    38.8120 hc         1 MOL       0.000000
     27 H4          -4.7080    40.1360    37.5500 hc         1 MOL       0.000000
     28 H5          -7.5400    46.7810    39.4630 hn         1 MOL       0.000000
     29 H6          -8.1760    47.8340    38.5820 ha         1 MOL       0.000000
     30 H7         -10.1740    48.6920    37.3330 ha         1 MOL       0.000000
     31 H8         -11.3770    50.7370    38.1740 ha         1 MOL       0.000000
     32 H9         -10.5720    51.8720    40.1810 ha         1 MOL       0.000000
     33 H10         -1.6940    42.7700    43.3400 h1         1 MOL       0.000000
     34 H11         -3.4300    42.5800    43.4040 h1         1 MOL       0.000000
     35 H12         -2.7340    44.0230    42.7060 h1         1 MOL       0.000000
@<TRIPOS>BOND
     1     1    23 1   
     2     2     1 ar  
     3     3     2 ar  
     4     4     3 1   
     5     4    25 1   
     6     4    26 1   
     7     4    27 1   
     8     5     3 ar  
     9     5     6 ar  
    10     6    12 ar  
    11     7     6 1   
    12     7     9 1   
    13     8     7 1   
    14     9    10 2   
    15    11     9 1   
    16    11    13 1   
    17    11    28 1   
    18    12     1 ar  
    19    13    14 2   
    20    13    15 2   
    21    16    21 ar  
    22    16    13 1   
    23    17    16 ar  
    24    17    29 1   
    25    18    19 ar  
    26    18    17 ar  
    27    18    30 1   
    28    19    20 ar  
    29    19    31 1   
    30    20    21 ar  
    31    20    32 1   
    32    21    22 1   
    33    23    24 1   
    34    24    33 1   
    35    24    34 1   
    36    24    35 1   
@<TRIPOS>SUBSTRUCTURE
     1 MOL         1 TEMP              0 ****  ****    0 ROOT
