@<TRIPOS>MOLECULE
MOL
   28    29     1     0     0
SMALL
No Charge or Current Charge


@<TRIPOS>ATOM
      1 C1          24.0130     2.3510    20.4960 c3         1 MOL       0.000000
      2 C2          22.6380     2.3380    19.7460 c3         1 MOL       0.000000
      3 N1          21.9100     1.1180    20.1440 n4         1 MOL       0.000000
      4 H1          21.9370     1.1110    21.1590 hn         1 MOL       0.000000
      5 C3          22.5830    -0.1420    19.7170 c3         1 MOL       0.000000
      6 C4          23.9610    -0.2260    20.4270 c3         1 MOL       0.000000
      7 C5          24.7990     1.0500    20.1200 c3         1 MOL       0.000000
      8 C6          20.4990     1.2930    19.8240 c3         1 MOL       0.000000
      9 C7          20.2510     2.8230    19.8410 c3         1 MOL       0.000000
     10 C8          21.6550     3.5000    20.0550 c3         1 MOL       0.000000
     11 O1          24.7650     3.5240    20.1430 oh         1 MOL       0.000000
     12 H2          24.9170     3.5420    19.1240 ho         1 MOL       0.000000
     13 O2          21.8080     3.9600    21.4150 oh         1 MOL       0.000000
     14 H3          20.9840     4.5170    21.6840 ho         1 MOL       0.000000
     15 O3          19.3510     3.1690    20.8910 oh         1 MOL       0.000000
     16 H4          19.8870     3.4130    21.7360 ho         1 MOL       0.000000
     17 H5          23.8520     2.3760    21.5530 h1         1 MOL       0.000000
     18 H6          22.9090     2.4150    18.7140 hx         1 MOL       0.000000
     19 H7          22.7230    -0.1360    18.6560 hx         1 MOL       0.000000
     20 H8          21.9820    -0.9870    19.9800 hx         1 MOL       0.000000
     21 H9          24.4880    -1.0890    20.0760 hc         1 MOL       0.000000
     22 H10         23.8070    -0.2980    21.4830 hc         1 MOL       0.000000
     23 H11         25.0300     1.0720    19.0760 hc         1 MOL       0.000000
     24 H12         25.6940     1.0150    20.7050 hc         1 MOL       0.000000
     25 H13         20.2830     0.8910    18.8560 hx         1 MOL       0.000000
     26 H14         19.8700     0.7830    20.5230 hx         1 MOL       0.000000
     27 H15         19.8050     3.1560    18.9270 h1         1 MOL       0.000000
     28 H16         21.8090     4.3650    19.4440 h1         1 MOL       0.000000
@<TRIPOS>BOND
     1     1     2 1   
     2     1    17 1   
     3     2    10 1   
     4     2    18 1   
     5     3     2 1   
     6     3     4 1   
     7     5     3 1   
     8     5     6 1   
     9     5    19 1   
    10     5    20 1   
    11     6    21 1   
    12     6    22 1   
    13     7     6 1   
    14     7     1 1   
    15     7    23 1   
    16     7    24 1   
    17     8     9 1   
    18     8     3 1   
    19     8    25 1   
    20     8    26 1   
    21     9    10 1   
    22     9    15 1   
    23     9    27 1   
    24    10    13 1   
    25    10    28 1   
    26    11     1 1   
    27    12    11 1   
    28    13    14 1   
    29    15    16 1   
@<TRIPOS>SUBSTRUCTURE
     1 MOL         1 TEMP              0 ****  ****    0 ROOT
