@<TRIPOS>MOLECULE
MOL
   28    29     1     0     0
SMALL
No Charge or Current Charge


@<TRIPOS>ATOM
      1 C1          18.0240    -2.2260    15.7530 c3         1 MOL       0.000000
      2 C2          19.4050    -2.9550    15.8660 c3         1 MOL       0.000000
      3 N1          19.3020    -4.2460    15.1590 n4         1 MOL       0.000000
      4 H1          18.9180    -4.0190    14.2460 hn         1 MOL       0.000000
      5 C3          18.3280    -5.1880    15.7810 c3         1 MOL       0.000000
      6 C4          16.9130    -4.5530    15.7020 c3         1 MOL       0.000000
      7 C5          16.9200    -3.1480    16.3740 c3         1 MOL       0.000000
      8 C6          20.6470    -4.7290    14.8720 c3         1 MOL       0.000000
      9 C7          21.5420    -3.4640    14.8080 c3         1 MOL       0.000000
     10 C8          20.6290    -2.2510    15.2190 c3         1 MOL       0.000000
     11 O1          18.0700    -0.9570    16.4270 oh         1 MOL       0.000000
     12 H2          17.2090    -0.8290    16.9780 ho         1 MOL       0.000000
     13 O2          20.2340    -1.4830    14.0620 oh         1 MOL       0.000000
     14 H3          20.8840    -1.6720    13.2850 ho         1 MOL       0.000000
     15 O3          22.0630    -3.2900    13.4940 oh         1 MOL       0.000000
     16 H4          21.3180    -2.9460    12.8710 ho         1 MOL       0.000000
     17 H5          17.7940    -2.0380    14.7250 h1         1 MOL       0.000000
     18 H6          19.5830    -3.0030    16.9200 hx         1 MOL       0.000000
     19 H7          18.5920    -5.3570    16.8040 hx         1 MOL       0.000000
     20 H8          18.3400    -6.1240    15.2630 hx         1 MOL       0.000000
     21 H9          16.2130    -5.1840    16.2080 hc         1 MOL       0.000000
     22 H10         16.6320    -4.4490    14.6750 hc         1 MOL       0.000000
     23 H11         17.1100    -3.2630    17.4210 hc         1 MOL       0.000000
     24 H12         15.9670    -2.6910    16.2110 hc         1 MOL       0.000000
     25 H13         20.9820    -5.3840    15.6490 hx         1 MOL       0.000000
     26 H14         20.6810    -5.2840    13.9580 hx         1 MOL       0.000000
     27 H15         22.3820    -3.5460    15.4660 h1         1 MOL       0.000000
     28 H16         21.1140    -1.5540    15.8700 h1         1 MOL       0.000000
@<TRIPOS>BOND
     1     1     2 1   
     2     1     7 1   
     3     1    11 1   
     4     1    17 1   
     5     2    10 1   
     6     2    18 1   
     7     3     5 1   
     8     3     2 1   
     9     4     3 1   
    10     5    19 1   
    11     5    20 1   
    12     6     5 1   
    13     6     7 1   
    14     6    21 1   
    15     6    22 1   
    16     7    23 1   
    17     7    24 1   
    18     8     3 1   
    19     8    25 1   
    20     8    26 1   
    21     9     8 1   
    22     9    10 1   
    23     9    27 1   
    24    10    28 1   
    25    11    12 1   
    26    13    10 1   
    27    14    13 1   
    28    15     9 1   
    29    16    15 1   
@<TRIPOS>SUBSTRUCTURE
     1 MOL         1 TEMP              0 ****  ****    0 ROOT
