@<TRIPOS>MOLECULE
MOL
   28    29     1     0     0
SMALL
No Charge or Current Charge


@<TRIPOS>ATOM
      1 C1          22.4890    -0.4640    16.9300 c3         1 MOL       0.000000
      2 C2          21.0060    -0.4560    17.4340 c3         1 MOL       0.000000
      3 N1          20.8000     0.7670    18.2330 n4         1 MOL       0.000000
      4 H1          21.1470     1.5260    17.6530 hn         1 MOL       0.000000
      5 C3          21.6200     0.8090    19.4780 c3         1 MOL       0.000000
      6 C4          23.1200     0.8180    19.0760 c3         1 MOL       0.000000
      7 C5          23.4390    -0.4100    18.1740 c3         1 MOL       0.000000
      8 C6          19.3690     1.0200    18.3380 c3         1 MOL       0.000000
      9 C7          18.7330     0.3560    17.0890 c3         1 MOL       0.000000
     10 C8          19.8940    -0.4080    16.3510 c3         1 MOL       0.000000
     11 O1          22.7440    -1.6400    16.1420 oh         1 MOL       0.000000
     12 H2          22.8090    -1.3790    15.1470 ho         1 MOL       0.000000
     13 O2          20.3360     0.3210    15.1860 oh         1 MOL       0.000000
     14 H3          21.0350     1.0250    15.4640 ho         1 MOL       0.000000
     15 O3          18.1520     1.3430    16.2430 oh         1 MOL       0.000000
     16 H4          18.2150     1.0370    15.2620 ho         1 MOL       0.000000
     17 H5          22.6670     0.3880    16.3080 h1         1 MOL       0.000000
     18 H6          20.9070    -1.3860    17.9540 hx         1 MOL       0.000000
     19 H7          21.4120    -0.0520    20.0770 hx         1 MOL       0.000000
     20 H8          21.3850     1.6860    20.0440 hx         1 MOL       0.000000
     21 H9          23.3370     1.7180    18.5390 hc         1 MOL       0.000000
     22 H10         23.7200     0.7680    19.9600 hc         1 MOL       0.000000
     23 H11         24.4520    -0.3410    17.8360 hc         1 MOL       0.000000
     24 H12         23.2920    -1.3000    18.7500 hc         1 MOL       0.000000
     25 H13         18.9770     0.5830    19.2330 hx         1 MOL       0.000000
     26 H14         19.1550     2.0670    18.3810 hx         1 MOL       0.000000
     27 H15         17.9480    -0.3180    17.3620 h1         1 MOL       0.000000
     28 H16         19.6080    -1.3730    15.9890 h1         1 MOL       0.000000
@<TRIPOS>BOND
     1     1     2 1   
     2     1     7 1   
     3     1    17 1   
     4     2    10 1   
     5     2    18 1   
     6     3     2 1   
     7     3     8 1   
     8     3     5 1   
     9     4     3 1   
    10     5    19 1   
    11     5    20 1   
    12     6     5 1   
    13     6    21 1   
    14     6    22 1   
    15     7     6 1   
    16     7    23 1   
    17     7    24 1   
    18     8    25 1   
    19     8    26 1   
    20     9    10 1   
    21     9     8 1   
    22     9    27 1   
    23    10    28 1   
    24    11     1 1   
    25    12    11 1   
    26    13    14 1   
    27    13    10 1   
    28    15     9 1   
    29    16    15 1   
@<TRIPOS>SUBSTRUCTURE
     1 MOL         1 TEMP              0 ****  ****    0 ROOT
