@<TRIPOS>MOLECULE
MOL
   69    73     1     0     0
SMALL
No Charge or Current Charge


@<TRIPOS>ATOM
      1 C1          85.1410     7.6130    37.5700 ca         1 MOL       0.000000
      2 C2          86.1880     6.6960    37.6500 ca         1 MOL       0.000000
      3 C3          86.1770     5.5690    36.8360 ca         1 MOL       0.000000
      4 C4          85.1310     5.3510    35.9370 ca         1 MOL       0.000000
      5 C5          84.0810     6.2620    35.8560 ca         1 MOL       0.000000
      6 C6          84.1020     7.4040    36.6610 ca         1 MOL       0.000000
      7 C7          87.3410     6.9030    38.6070 c3         1 MOL       0.000000
      8 N1          83.0760     6.0010    34.9100 n          1 MOL       0.000000
      9 C8          81.8530     5.5620    35.1900 c          1 MOL       0.000000
     10 O1          81.4900     5.3110    36.3190 o          1 MOL       0.000000
     11 H1          83.3060     6.1630    33.9190 hn         1 MOL       0.000000
     12 C9          80.8820     5.3950    34.0650 ca         1 MOL       0.000000
     13 C10         80.0970     6.4800    33.6720 ca         1 MOL       0.000000
     14 C11         79.1960     6.3270    32.6230 ca         1 MOL       0.000000
     15 C12         79.0930     5.0970    31.9760 ca         1 MOL       0.000000
     16 C13         79.8820     4.0140    32.3580 ca         1 MOL       0.000000
     17 C14         80.7840     4.1730    33.4070 ca         1 MOL       0.000000
     18 C15         78.1220     4.9450    30.8320 c3         1 MOL       0.000000
     19 N2          78.5560     5.6150    29.6130 n3         1 MOL       0.000000
     20 C16         79.0980     4.7600    28.5630 c3         1 MOL       0.000000
     21 C17         79.7440     5.6340    27.4970 c3         1 MOL       0.000000
     22 N3          78.7470     6.6050    27.0660 n4         1 MOL       0.000000
     23 C18         79.0600     7.2420    25.7910 c3         1 MOL       0.000000
     24 C19         78.1580     7.4860    28.0680 c3         1 MOL       0.000000
     25 H2          77.9670     6.0100    26.8120 hn         1 MOL       0.000000
     26 C20         77.6160     6.6640    29.2280 c3         1 MOL       0.000000
     27 N4          85.1560     8.7280    38.3410 nh         1 MOL       0.000000
     28 H3          85.9240     9.4020    38.2070 hn         1 MOL       0.000000
     29 C21         84.2250     9.0060    39.2710 ca         1 MOL       0.000000
     30 N5          84.5310     9.1350    40.5860 nb         1 MOL       0.000000
     31 C22         83.5640     9.4050    41.4810 ca         1 MOL       0.000000
     32 C23         82.2410     9.5450    41.0690 ca         1 MOL       0.000000
     33 C24         81.9540     9.3810    39.7140 cp         1 MOL       0.000000
     34 N6          82.9480     9.1150    38.8460 nb         1 MOL       0.000000
     35 C25         80.5720     9.4900    39.1970 cp         1 MOL       0.000000
     36 C26         80.3050     9.2900    37.8440 ca         1 MOL       0.000000
     37 C27         78.9910     9.4080    37.3870 ca         1 MOL       0.000000
     38 C28         77.9980     9.7340    38.3040 ca         1 MOL       0.000000
     39 N7          78.2900     9.9340    39.6070 nb         1 MOL       0.000000
     40 C29         79.5430     9.8180    40.0750 ca         1 MOL       0.000000
     41 H4          86.9490     4.8870    36.8970 ha         1 MOL       0.000000
     42 H5          85.1360     4.5150    35.3330 ha         1 MOL       0.000000
     43 H6          83.3430     8.0990    36.5830 ha         1 MOL       0.000000
     44 H7          88.0320     6.0920    38.5130 hc         1 MOL       0.000000
     45 H8          86.9700     6.9410    39.6100 hc         1 MOL       0.000000
     46 H9          87.8360     7.8230    38.3750 hc         1 MOL       0.000000
     47 H10         80.1840     7.3880    34.1550 ha         1 MOL       0.000000
     48 H11         78.6070     7.1200    32.3250 ha         1 MOL       0.000000
     49 H12         79.7990     3.1080    31.8710 ha         1 MOL       0.000000
     50 H13         81.3810     3.3830    33.6970 ha         1 MOL       0.000000
     51 H14         78.0050     3.9020    30.6230 h1         1 MOL       0.000000
     52 H15         77.2030     5.4020    31.1340 h1         1 MOL       0.000000
     53 H16         79.8310     4.1010    28.9800 h1         1 MOL       0.000000
     54 H17         78.3120     4.1800    28.1270 h1         1 MOL       0.000000
     55 H18         80.5940     6.1390    27.9050 hx         1 MOL       0.000000
     56 H19         80.0740     5.0400    26.6710 hx         1 MOL       0.000000
     57 H20         79.4850     6.5190    25.1260 hx         1 MOL       0.000000
     58 H21         79.7600     8.0350    25.9510 hx         1 MOL       0.000000
     59 H22         78.1640     7.6390    25.3610 hx         1 MOL       0.000000
     60 H23         77.3590     8.0430    27.6250 hx         1 MOL       0.000000
     61 H24         78.9090     8.1560    28.4320 hx         1 MOL       0.000000
     62 H25         76.6910     6.2140    28.9350 h1         1 MOL       0.000000
     63 H26         77.4690     7.3130    30.0660 h1         1 MOL       0.000000
     64 H27         83.8040     9.5090    42.4790 h4         1 MOL       0.000000
     65 H28         81.4940     9.7640    41.7470 ha         1 MOL       0.000000
     66 H29         81.0680     9.0580    37.1890 ha         1 MOL       0.000000
     67 H30         78.7620     9.2570    36.3920 ha         1 MOL       0.000000
     68 H31         77.0210     9.8250    37.9830 h4         1 MOL       0.000000
     69 H32         79.7410     9.9710    41.0760 h4         1 MOL       0.000000
@<TRIPOS>BOND
     1     1     2 ar  
     2     1    27 1   
     3     2     7 1   
     4     3     2 ar  
     5     3    41 1   
     6     4     3 ar  
     7     4    42 1   
     8     5     4 ar  
     9     5     6 ar  
    10     6     1 ar  
    11     6    43 1   
    12     7    44 1   
    13     7    45 1   
    14     7    46 1   
    15     8     9 1   
    16     8     5 1   
    17     9    10 2   
    18    11     8 1   
    19    12     9 1   
    20    13    12 ar  
    21    13    47 1   
    22    14    13 ar  
    23    14    48 1   
    24    15    16 ar  
    25    15    14 ar  
    26    16    17 ar  
    27    16    49 1   
    28    17    12 ar  
    29    17    50 1   
    30    18    15 1   
    31    18    51 1   
    32    18    52 1   
    33    19    18 1   
    34    20    19 1   
    35    20    53 1   
    36    20    54 1   
    37    21    20 1   
    38    21    55 1   
    39    21    56 1   
    40    22    21 1   
    41    22    24 1   
    42    23    22 1   
    43    23    57 1   
    44    23    58 1   
    45    23    59 1   
    46    24    26 1   
    47    24    60 1   
    48    24    61 1   
    49    25    22 1   
    50    26    19 1   
    51    26    62 1   
    52    26    63 1   
    53    27    29 1   
    54    28    27 1   
    55    29    30 ar  
    56    30    31 ar  
    57    31    64 1   
    58    32    31 ar  
    59    32    65 1   
    60    33    32 ar  
    61    34    29 ar  
    62    34    33 ar  
    63    35    33 1   
    64    35    40 ar  
    65    36    35 ar  
    66    36    66 1   
    67    37    36 ar  
    68    37    38 ar  
    69    37    67 1   
    70    38    39 ar  
    71    38    68 1   
    72    39    40 ar  
    73    40    69 1   
@<TRIPOS>SUBSTRUCTURE
     1 MOL         1 TEMP              0 ****  ****    0 ROOT
