MODEL 1
REMARK VINA RESULT:      -9.1      0.000      0.000
REMARK  7 active torsions:
REMARK  status: ('A' for Active; 'I' for Inactive)
REMARK    1  A    between atoms: C2_3  and  C5_7 
REMARK    2  A    between atoms: C8_11  and  N3_13 
REMARK    3  A    between atoms: N3_13  and  C9_15 
REMARK    4  A    between atoms: C13_19  and  N4_21 
REMARK       I    between atoms: N4_21  and  C15_23 
REMARK    5  A    between atoms: C15_23  and  C16_24 
REMARK    6  A    between atoms: C19_27  and  C22_30 
REMARK    7  A    between atoms: C22_30  and  N5_31 
ROOT
ATOM      1  C9  UNL d          84.597   8.076  38.240  0.00  0.00     0.057 A 
ATOM      2  C10 UNL d          85.779   7.339  38.290  0.00  0.00    -0.035 A 
ATOM      3  C11 UNL d          85.988   6.313  37.375  0.00  0.00     0.011 A 
ATOM      4  C12 UNL d          85.028   6.019  36.405  0.00  0.00     0.030 A 
ATOM      5  C13 UNL d          83.843   6.751  36.353  0.00  0.00     0.037 A 
ATOM      6  C14 UNL d          83.642   7.793  37.261  0.00  0.00     0.060 A 
ATOM      7  C28 UNL d          86.844   7.634  39.323  0.00  0.00     0.050 C 
ENDROOT
BRANCH   5   8
ATOM      8  N4  UNL d          82.933   6.426  35.334  0.00  0.00    -0.323 N 
ATOM      9  C15 UNL d          81.841   5.682  35.488  0.00  0.00     0.256 C 
ATOM     10  O   UNL d          81.538   5.175  36.546  0.00  0.00    -0.267 OA
ATOM     11  H10 UNL d          83.126   6.794  34.391  0.00  0.00     0.169 HD
BRANCH   9  12
ATOM     12  C16 UNL d          80.943   5.484  34.308  0.00  0.00     0.032 A 
ATOM     13  C17 UNL d          80.917   4.244  33.670  0.00  0.00     0.017 A 
ATOM     14  C18 UNL d          80.079   4.056  32.575  0.00  0.00     0.010 A 
ATOM     15  C19 UNL d          79.275   5.107  32.133  0.00  0.00    -0.041 A 
ATOM     16  C20 UNL d          79.291   6.344  32.774  0.00  0.00     0.010 A 
ATOM     17  C21 UNL d          80.129   6.525  33.871  0.00  0.00     0.017 A 
BRANCH  15  18
ATOM     18  C22 UNL d          78.362   4.890  30.953  0.00  0.00     0.155 C 
BRANCH  18  19
ATOM     19  N5  UNL d          78.743   5.662  29.778  0.00  0.00    -0.405 N 
ATOM     20  C23 UNL d          79.507   4.952  28.757  0.00  0.00     0.144 C 
ATOM     21  C24 UNL d          80.047   5.960  27.753  0.00  0.00     0.253 C 
ATOM     22  N6  UNL d          78.917   6.738  27.265  0.00  0.00    -0.072 N 
ATOM     23  C25 UNL d          79.189   7.457  26.024  0.00  0.00     0.269 C 
ATOM     24  C26 UNL d          78.106   7.467  28.234  0.00  0.00     0.253 C 
ATOM     25  H21 UNL d          78.282   6.016  26.948  0.00  0.00     0.279 HD
ATOM     26  C27 UNL d          77.651   6.527  29.341  0.00  0.00     0.144 C 
ENDBRANCH  18  19
ENDBRANCH  15  18
ENDBRANCH   9  12
ENDBRANCH   5   8
BRANCH   1  27
ATOM     27  N3  UNL d          84.395   9.095  39.112  0.00  0.00    -0.188 N 
ATOM     28  H6  UNL d          85.137   9.803  39.212  0.00  0.00     0.184 HD
BRANCH  27  29
ATOM     29  C8  UNL d          83.282   9.234  39.853  0.00  0.00     0.727 A 
ATOM     30  N1  UNL d          83.312   9.250  41.209  0.00  0.00    -0.075 NA
ATOM     31  C7  UNL d          82.171   9.384  41.908  0.00  0.00     0.139 A 
ATOM     32  C6  UNL d          80.949   9.498  41.249  0.00  0.00     0.053 A 
ATOM     33  C5  UNL d          80.948   9.453  39.855  0.00  0.00     0.089 A 
ATOM     34  N2  UNL d          82.110   9.322  39.188  0.00  0.00    -0.062 NA
BRANCH  33  35
ATOM     35  C2  UNL d          79.692   9.543  39.079  0.00  0.00     0.011 A 
ATOM     36  C1  UNL d          78.501   9.914  39.702  0.00  0.00     0.017 A 
ATOM     37  C   UNL d          77.331   9.983  38.943  0.00  0.00     0.020 A 
ATOM     38  C4  UNL d          77.400   9.664  37.591  0.00  0.00     0.116 A 
ATOM     39  N   UNL d          78.565   9.296  37.019  0.00  0.00    -0.272 NA
ATOM     40  C3  UNL d          79.707   9.231  37.723  0.00  0.00     0.130 A 
ENDBRANCH  33  35
ENDBRANCH  27  29
ENDBRANCH   1  27
TORSDOF 7
ENDMDL
MODEL 2
REMARK VINA RESULT:      -8.8      0.855      1.365
REMARK  7 active torsions:
REMARK  status: ('A' for Active; 'I' for Inactive)
REMARK    1  A    between atoms: C2_3  and  C5_7 
REMARK    2  A    between atoms: C8_11  and  N3_13 
REMARK    3  A    between atoms: N3_13  and  C9_15 
REMARK    4  A    between atoms: C13_19  and  N4_21 
REMARK       I    between atoms: N4_21  and  C15_23 
REMARK    5  A    between atoms: C15_23  and  C16_24 
REMARK    6  A    between atoms: C19_27  and  C22_30 
REMARK    7  A    between atoms: C22_30  and  N5_31 
ROOT
ATOM      1  C9  UNL d          85.141   7.613  37.570  0.00  0.00     0.057 A 
ATOM      2  C10 UNL d          86.188   6.696  37.650  0.00  0.00    -0.035 A 
ATOM      3  C11 UNL d          86.177   5.569  36.836  0.00  0.00     0.011 A 
ATOM      4  C12 UNL d          85.131   5.351  35.937  0.00  0.00     0.030 A 
ATOM      5  C13 UNL d          84.081   6.262  35.856  0.00  0.00     0.037 A 
ATOM      6  C14 UNL d          84.102   7.404  36.661  0.00  0.00     0.060 A 
ATOM      7  C28 UNL d          87.341   6.903  38.607  0.00  0.00     0.050 C 
ENDROOT
BRANCH   5   8
ATOM      8  N4  UNL d          83.076   6.001  34.910  0.00  0.00    -0.323 N 
ATOM      9  C15 UNL d          81.853   5.562  35.190  0.00  0.00     0.256 C 
ATOM     10  O   UNL d          81.490   5.311  36.319  0.00  0.00    -0.267 OA
ATOM     11  H10 UNL d          83.306   6.163  33.919  0.00  0.00     0.169 HD
BRANCH   9  12
ATOM     12  C16 UNL d          80.882   5.395  34.065  0.00  0.00     0.032 A 
ATOM     13  C17 UNL d          80.097   6.480  33.672  0.00  0.00     0.017 A 
ATOM     14  C18 UNL d          79.196   6.327  32.623  0.00  0.00     0.010 A 
ATOM     15  C19 UNL d          79.093   5.097  31.976  0.00  0.00    -0.041 A 
ATOM     16  C20 UNL d          79.882   4.014  32.358  0.00  0.00     0.010 A 
ATOM     17  C21 UNL d          80.784   4.173  33.407  0.00  0.00     0.017 A 
BRANCH  15  18
ATOM     18  C22 UNL d          78.122   4.945  30.832  0.00  0.00     0.155 C 
BRANCH  18  19
ATOM     19  N5  UNL d          78.556   5.615  29.613  0.00  0.00    -0.405 N 
ATOM     20  C23 UNL d          79.098   4.760  28.563  0.00  0.00     0.144 C 
ATOM     21  C24 UNL d          79.744   5.634  27.497  0.00  0.00     0.253 C 
ATOM     22  N6  UNL d          78.747   6.605  27.066  0.00  0.00    -0.072 N 
ATOM     23  C25 UNL d          79.060   7.242  25.791  0.00  0.00     0.269 C 
ATOM     24  C26 UNL d          78.158   7.486  28.068  0.00  0.00     0.253 C 
ATOM     25  H21 UNL d          77.967   6.010  26.812  0.00  0.00     0.279 HD
ATOM     26  C27 UNL d          77.616   6.664  29.228  0.00  0.00     0.144 C 
ENDBRANCH  18  19
ENDBRANCH  15  18
ENDBRANCH   9  12
ENDBRANCH   5   8
BRANCH   1  27
ATOM     27  N3  UNL d          85.156   8.728  38.341  0.00  0.00    -0.188 N 
ATOM     28  H6  UNL d          85.924   9.402  38.207  0.00  0.00     0.184 HD
BRANCH  27  29
ATOM     29  C8  UNL d          84.225   9.006  39.271  0.00  0.00     0.727 A 
ATOM     30  N1  UNL d          84.531   9.135  40.586  0.00  0.00    -0.075 NA
ATOM     31  C7  UNL d          83.564   9.405  41.481  0.00  0.00     0.139 A 
ATOM     32  C6  UNL d          82.241   9.545  41.069  0.00  0.00     0.053 A 
ATOM     33  C5  UNL d          81.954   9.381  39.714  0.00  0.00     0.089 A 
ATOM     34  N2  UNL d          82.948   9.115  38.846  0.00  0.00    -0.062 NA
BRANCH  33  35
ATOM     35  C2  UNL d          80.572   9.490  39.197  0.00  0.00     0.011 A 
ATOM     36  C1  UNL d          80.305   9.290  37.844  0.00  0.00     0.017 A 
ATOM     37  C   UNL d          78.991   9.408  37.387  0.00  0.00     0.020 A 
ATOM     38  C4  UNL d          77.998   9.734  38.304  0.00  0.00     0.116 A 
ATOM     39  N   UNL d          78.290   9.934  39.607  0.00  0.00    -0.272 NA
ATOM     40  C3  UNL d          79.543   9.818  40.075  0.00  0.00     0.130 A 
ENDBRANCH  33  35
ENDBRANCH  27  29
ENDBRANCH   1  27
TORSDOF 7
ENDMDL
MODEL 3
REMARK VINA RESULT:      -8.6      1.664      2.914
REMARK  7 active torsions:
REMARK  status: ('A' for Active; 'I' for Inactive)
REMARK    1  A    between atoms: C2_3  and  C5_7 
REMARK    2  A    between atoms: C8_11  and  N3_13 
REMARK    3  A    between atoms: N3_13  and  C9_15 
REMARK    4  A    between atoms: C13_19  and  N4_21 
REMARK       I    between atoms: N4_21  and  C15_23 
REMARK    5  A    between atoms: C15_23  and  C16_24 
REMARK    6  A    between atoms: C19_27  and  C22_30 
REMARK    7  A    between atoms: C22_30  and  N5_31 
ROOT
ATOM      1  C9  UNL d          86.206   5.343  36.582  0.00  0.00     0.057 A 
ATOM      2  C10 UNL d          86.736   4.065  36.757  0.00  0.00    -0.035 A 
ATOM      3  C11 UNL d          86.117   2.977  36.153  0.00  0.00     0.011 A 
ATOM      4  C12 UNL d          84.975   3.152  35.370  0.00  0.00     0.030 A 
ATOM      5  C13 UNL d          84.439   4.426  35.195  0.00  0.00     0.037 A 
ATOM      6  C14 UNL d          85.071   5.521  35.787  0.00  0.00     0.060 A 
ATOM      7  C28 UNL d          87.976   3.839  37.592  0.00  0.00     0.050 C 
ENDROOT
BRANCH   5   8
ATOM      8  N4  UNL d          83.307   4.538  34.372  0.00  0.00    -0.323 N 
ATOM      9  C15 UNL d          82.090   4.884  34.780  0.00  0.00     0.256 C 
ATOM     10  O   UNL d          81.830   5.112  35.942  0.00  0.00    -0.267 OA
ATOM     11  H10 UNL d          83.430   4.337  33.368  0.00  0.00     0.169 HD
BRANCH   9  12
ATOM     12  C16 UNL d          81.007   5.017  33.758  0.00  0.00     0.032 A 
ATOM     13  C17 UNL d          80.649   3.907  32.993  0.00  0.00     0.017 A 
ATOM     14  C18 UNL d          79.638   4.028  32.044  0.00  0.00     0.010 A 
ATOM     15  C19 UNL d          78.995   5.253  31.874  0.00  0.00    -0.041 A 
ATOM     16  C20 UNL d          79.342   6.362  32.643  0.00  0.00     0.010 A 
ATOM     17  C21 UNL d          80.352   6.234  33.593  0.00  0.00     0.017 A 
BRANCH  15  18
ATOM     18  C22 UNL d          77.893   5.370  30.851  0.00  0.00     0.155 C 
BRANCH  18  19
ATOM     19  N5  UNL d          78.349   5.884  29.566  0.00  0.00    -0.405 N 
ATOM     20  C23 UNL d          78.873   4.899  28.625  0.00  0.00     0.144 C 
ATOM     21  C24 UNL d          79.546   5.629  27.470  0.00  0.00     0.253 C 
ATOM     22  N6  UNL d          78.577   6.568  26.923  0.00  0.00    -0.072 N 
ATOM     23  C25 UNL d          78.912   7.046  25.586  0.00  0.00     0.269 C 
ATOM     24  C26 UNL d          78.008   7.574  27.813  0.00  0.00     0.253 C 
ATOM     25  H21 UNL d          77.783   5.969  26.734  0.00  0.00     0.279 HD
ATOM     26  C27 UNL d          77.439   6.905  29.056  0.00  0.00     0.144 C 
ENDBRANCH  18  19
ENDBRANCH  15  18
ENDBRANCH   9  12
ENDBRANCH   5   8
BRANCH   1  27
ATOM     27  N3  UNL d          86.817   6.414  37.146  0.00  0.00    -0.188 N 
ATOM     28  H6  UNL d          87.643   6.807  36.672  0.00  0.00     0.184 HD
BRANCH  27  29
ATOM     29  C8  UNL d          86.406   6.993  38.288  0.00  0.00     0.727 A 
ATOM     30  N1  UNL d          87.234   7.178  39.345  0.00  0.00    -0.075 NA
ATOM     31  C7  UNL d          86.775   7.755  40.470  0.00  0.00     0.139 A 
ATOM     32  C6  UNL d          85.445   8.159  40.563  0.00  0.00     0.053 A 
ATOM     33  C5  UNL d          84.612   7.932  39.468  0.00  0.00     0.089 A 
ATOM     34  N2  UNL d          85.107   7.356  38.357  0.00  0.00    -0.062 NA
BRANCH  33  35
ATOM     35  C2  UNL d          83.182   8.310  39.494  0.00  0.00     0.011 A 
ATOM     36  C1  UNL d          82.661   9.039  40.562  0.00  0.00     0.017 A 
ATOM     37  C   UNL d          81.306   9.373  40.560  0.00  0.00     0.020 A 
ATOM     38  C4  UNL d          80.522   8.951  39.492  0.00  0.00     0.116 A 
ATOM     39  N   UNL d          81.052   8.234  38.478  0.00  0.00    -0.272 NA
ATOM     40  C3  UNL d          82.354   7.907  38.450  0.00  0.00     0.130 A 
ENDBRANCH  33  35
ENDBRANCH  27  29
ENDBRANCH   1  27
TORSDOF 7
ENDMDL
