@<TRIPOS>MOLECULE
MOL
   69    73     1     0     0
SMALL
No Charge or Current Charge


@<TRIPOS>ATOM
      1 C1          86.2060     5.3430    36.5820 ca         1 MOL       0.000000
      2 C2          86.7360     4.0650    36.7570 ca         1 MOL       0.000000
      3 C3          86.1170     2.9770    36.1530 ca         1 MOL       0.000000
      4 C4          84.9750     3.1520    35.3700 ca         1 MOL       0.000000
      5 C5          84.4390     4.4260    35.1950 ca         1 MOL       0.000000
      6 C6          85.0710     5.5210    35.7870 ca         1 MOL       0.000000
      7 C7          87.9760     3.8390    37.5920 c3         1 MOL       0.000000
      8 N1          83.3070     4.5380    34.3720 n          1 MOL       0.000000
      9 C8          82.0900     4.8840    34.7800 c          1 MOL       0.000000
     10 O1          81.8300     5.1120    35.9420 o          1 MOL       0.000000
     11 H1          83.4300     4.3370    33.3680 hn         1 MOL       0.000000
     12 C9          81.0070     5.0170    33.7580 ca         1 MOL       0.000000
     13 C10         80.6490     3.9070    32.9930 ca         1 MOL       0.000000
     14 C11         79.6380     4.0280    32.0440 ca         1 MOL       0.000000
     15 C12         78.9950     5.2530    31.8740 ca         1 MOL       0.000000
     16 C13         79.3420     6.3620    32.6430 ca         1 MOL       0.000000
     17 C14         80.3520     6.2340    33.5930 ca         1 MOL       0.000000
     18 C15         77.8930     5.3700    30.8510 c3         1 MOL       0.000000
     19 N2          78.3490     5.8840    29.5660 n3         1 MOL       0.000000
     20 C16         78.8730     4.8990    28.6250 c3         1 MOL       0.000000
     21 C17         79.5460     5.6290    27.4700 c3         1 MOL       0.000000
     22 N3          78.5770     6.5680    26.9230 n4         1 MOL       0.000000
     23 C18         78.9120     7.0460    25.5860 c3         1 MOL       0.000000
     24 C19         78.0080     7.5740    27.8130 c3         1 MOL       0.000000
     25 H2          77.7830     5.9690    26.7340 hn         1 MOL       0.000000
     26 C20         77.4390     6.9050    29.0560 c3         1 MOL       0.000000
     27 N4          86.8170     6.4140    37.1460 nh         1 MOL       0.000000
     28 H3          87.6430     6.8070    36.6720 hn         1 MOL       0.000000
     29 C21         86.4060     6.9930    38.2880 ca         1 MOL       0.000000
     30 N5          87.2340     7.1780    39.3450 nb         1 MOL       0.000000
     31 C22         86.7750     7.7550    40.4700 ca         1 MOL       0.000000
     32 C23         85.4450     8.1590    40.5630 ca         1 MOL       0.000000
     33 C24         84.6120     7.9320    39.4680 cp         1 MOL       0.000000
     34 N6          85.1070     7.3560    38.3570 nb         1 MOL       0.000000
     35 C25         83.1820     8.3100    39.4940 cp         1 MOL       0.000000
     36 C26         82.6610     9.0390    40.5620 ca         1 MOL       0.000000
     37 C27         81.3060     9.3730    40.5600 ca         1 MOL       0.000000
     38 C28         80.5220     8.9510    39.4920 ca         1 MOL       0.000000
     39 N7          81.0520     8.2340    38.4780 nb         1 MOL       0.000000
     40 C29         82.3540     7.9070    38.4500 ca         1 MOL       0.000000
     41 H4          86.5060     2.0300    36.2850 ha         1 MOL       0.000000
     42 H5          84.5280     2.3380    34.9210 ha         1 MOL       0.000000
     43 H6          84.6960     6.4710    35.6360 ha         1 MOL       0.000000
     44 H7          88.2160     2.7960    37.6000 hc         1 MOL       0.000000
     45 H8          87.7970     4.1710    38.5930 hc         1 MOL       0.000000
     46 H9          88.7930     4.3900    37.1740 hc         1 MOL       0.000000
     47 H10         81.1290     3.0040    33.1290 ha         1 MOL       0.000000
     48 H11         79.3660     3.2150    31.4690 ha         1 MOL       0.000000
     49 H12         78.8580     7.2640    32.5110 ha         1 MOL       0.000000
     50 H13         80.6160     7.0440    34.1760 ha         1 MOL       0.000000
     51 H14         77.4690     4.4000    30.6970 h1         1 MOL       0.000000
     52 H15         77.1780     6.0680    31.2350 h1         1 MOL       0.000000
     53 H16         79.5870     4.2740    29.1200 h1         1 MOL       0.000000
     54 H17         78.0740     4.2920    28.2540 h1         1 MOL       0.000000
     55 H18         80.4070     6.1570    27.8230 hx         1 MOL       0.000000
     56 H19         79.8640     4.9360    26.7200 hx         1 MOL       0.000000
     57 H20         79.3200     6.2410    25.0110 hx         1 MOL       0.000000
     58 H21         79.6330     7.8330    25.6590 hx         1 MOL       0.000000
     59 H22         78.0290     7.4140    25.1070 hx         1 MOL       0.000000
     60 H23         77.2270     8.0980    27.3030 hx         1 MOL       0.000000
     61 H24         78.7750     8.2610    28.1030 hx         1 MOL       0.000000
     62 H25         76.5040     6.4480    28.8100 h1         1 MOL       0.000000
     63 H26         77.3060     7.6500    29.8120 h1         1 MOL       0.000000
     64 H27         87.4120     7.8990    41.2690 h4         1 MOL       0.000000
     65 H28         85.0870     8.6130    41.4180 ha         1 MOL       0.000000
     66 H29         83.2690     9.3280    41.3440 ha         1 MOL       0.000000
     67 H30         80.8960     9.9200    41.3330 ha         1 MOL       0.000000
     68 H31         79.5180     9.1900    39.4740 h4         1 MOL       0.000000
     69 H32         82.7370     7.3620    37.6620 h4         1 MOL       0.000000
@<TRIPOS>BOND
     1     1     2 ar  
     2     1    27 1   
     3     2     7 1   
     4     3     2 ar  
     5     3    41 1   
     6     4     3 ar  
     7     4    42 1   
     8     5     4 ar  
     9     5     6 ar  
    10     6     1 ar  
    11     6    43 1   
    12     7    44 1   
    13     7    45 1   
    14     7    46 1   
    15     8     9 1   
    16     8     5 1   
    17     9    10 2   
    18    11     8 1   
    19    12     9 1   
    20    13    12 ar  
    21    13    47 1   
    22    14    13 ar  
    23    14    48 1   
    24    15    14 ar  
    25    15    16 ar  
    26    16    17 ar  
    27    16    49 1   
    28    17    12 ar  
    29    17    50 1   
    30    18    15 1   
    31    18    51 1   
    32    18    52 1   
    33    19    18 1   
    34    20    19 1   
    35    20    53 1   
    36    20    54 1   
    37    21    20 1   
    38    21    55 1   
    39    21    56 1   
    40    22    21 1   
    41    22    24 1   
    42    23    22 1   
    43    23    57 1   
    44    23    58 1   
    45    23    59 1   
    46    24    26 1   
    47    24    60 1   
    48    24    61 1   
    49    25    22 1   
    50    26    19 1   
    51    26    62 1   
    52    26    63 1   
    53    27    29 1   
    54    28    27 1   
    55    29    34 ar  
    56    29    30 ar  
    57    30    31 ar  
    58    31    32 ar  
    59    31    64 1   
    60    32    65 1   
    61    33    35 1   
    62    33    32 ar  
    63    34    33 ar  
    64    35    36 ar  
    65    36    66 1   
    66    37    36 ar  
    67    37    67 1   
    68    38    37 ar  
    69    38    68 1   
    70    39    38 ar  
    71    40    39 ar  
    72    40    35 ar  
    73    40    69 1   
@<TRIPOS>SUBSTRUCTURE
     1 MOL         1 TEMP              0 ****  ****    0 ROOT
