@<TRIPOS>MOLECULE
MOL
   32    31     1     0     0
SMALL
No Charge or Current Charge


@<TRIPOS>ATOM
      1 C1          25.5920    16.0930    60.8220 c3         1 MOL       0.000000
      2 C2          26.6220    14.7810    61.0750 c3         1 MOL       0.000000
      3 C3          28.0510    15.3630    61.4540 c3         1 MOL       0.000000
      4 C4          26.6900    13.8590    59.8860 c3         1 MOL       0.000000
      5 C5          26.1420    13.8620    62.2770 c3         1 MOL       0.000000
      6 O1          24.9940    13.0800    61.9540 oh         1 MOL       0.000000
      7 H1          24.2880    13.1830    62.6970 ho         1 MOL       0.000000
      8 O2          24.2090    15.6160    60.8200 oh         1 MOL       0.000000
      9 H2          23.9750    15.2430    59.8890 ho         1 MOL       0.000000
     10 C6          25.6760    17.1990    61.9730 c          1 MOL       0.000000
     11 O3          25.0870    16.9490    63.1460 o          1 MOL       0.000000
     12 N1          26.3450    18.3200    61.7600 n          1 MOL       0.000000
     13 H3          26.7280    18.4880    60.8190 hn         1 MOL       0.000000
     14 C7          26.5730    19.3540    62.8120 c3         1 MOL       0.000000
     15 C8          28.0610    19.8150    62.8700 c3         1 MOL       0.000000
     16 C9          28.5060    20.5270    61.5730 c          1 MOL       0.000000
     17 O4          27.7100    20.6540    60.5150 o          1 MOL       0.000000
     18 O5          29.7470    20.9890    61.6090 oh         1 MOL       0.000000
     19 H4          25.8930    16.5330    59.8940 h1         1 MOL       0.000000
     20 H5          28.4030    15.9890    60.6610 hc         1 MOL       0.000000
     21 H6          28.7370    14.5550    61.6020 hc         1 MOL       0.000000
     22 H7          27.9750    15.9370    62.3540 hc         1 MOL       0.000000
     23 H8          27.0100    14.4090    59.0260 hc         1 MOL       0.000000
     24 H9          25.7220    13.4410    59.7030 hc         1 MOL       0.000000
     25 H10         27.3870    13.0720    60.0850 hc         1 MOL       0.000000
     26 H11         25.9050    14.4880    63.1120 h1         1 MOL       0.000000
     27 H12         26.9390    13.1840    62.5010 h1         1 MOL       0.000000
     28 H13         26.3020    18.9450    63.7630 h1         1 MOL       0.000000
     29 H14         25.9740    20.2070    62.5710 h1         1 MOL       0.000000
     30 H15         28.1800    20.4900    63.6910 hc         1 MOL       0.000000
     31 H16         28.6690    18.9430    62.9890 hc         1 MOL       0.000000
     32 H17         30.2680    20.8740    62.3800 ho         1 MOL       0.000000
@<TRIPOS>BOND
     1     1     2 1   
     2     1    10 1   
     3     1    19 1   
     4     2     3 1   
     5     2     5 1   
     6     3    20 1   
     7     3    21 1   
     8     3    22 1   
     9     4     2 1   
    10     4    23 1   
    11     4    24 1   
    12     4    25 1   
    13     5    26 1   
    14     5    27 1   
    15     6     5 1   
    16     6     7 1   
    17     8     1 1   
    18     9     8 1   
    19    10    11 2   
    20    12    10 1   
    21    12    14 1   
    22    13    12 1   
    23    14    15 1   
    24    14    28 1   
    25    14    29 1   
    26    15    30 1   
    27    15    31 1   
    28    16    18 1   
    29    16    15 1   
    30    17    16 2   
    31    18    32 1   
@<TRIPOS>SUBSTRUCTURE
     1 MOL         1 TEMP              0 ****  ****    0 ROOT
