@<TRIPOS>MOLECULE
MOL
   32    31     1     0     0
SMALL
No Charge or Current Charge


@<TRIPOS>ATOM
      1 C1          26.7860    15.3500    60.4470 c3         1 MOL       0.000000
      2 C2          25.6310    15.3800    61.6760 c3         1 MOL       0.000000
      3 C3          26.3430    15.9210    62.9890 c3         1 MOL       0.000000
      4 C4          24.9900    14.0350    61.9020 c3         1 MOL       0.000000
      5 C5          24.4240    16.3560    61.3450 c3         1 MOL       0.000000
      6 O1          24.6270    17.6780    61.8390 oh         1 MOL       0.000000
      7 H1          25.6070    17.9560    61.6860 ho         1 MOL       0.000000
      8 O2          26.2970    14.5080    59.3560 oh         1 MOL       0.000000
      9 H2          25.4110    14.8920    58.9970 ho         1 MOL       0.000000
     10 C6          27.0680    16.7870    59.8050 c          1 MOL       0.000000
     11 O3          26.6710    17.0160    58.5500 o          1 MOL       0.000000
     12 N1          27.6560    17.7260    60.5270 n          1 MOL       0.000000
     13 H3          27.9960    17.4780    61.4670 hn         1 MOL       0.000000
     14 C7          27.8540    19.1270    60.0500 c3         1 MOL       0.000000
     15 C8          27.9280    20.1440    61.2280 c3         1 MOL       0.000000
     16 C9          27.6550    19.4790    62.5960 c          1 MOL       0.000000
     17 O4          28.6180    18.9350    63.3340 oh         1 MOL       0.000000
     18 O5          26.3810    19.4940    62.9600 o          1 MOL       0.000000
     19 H4          27.6870    14.9860    60.8950 h1         1 MOL       0.000000
     20 H5          26.7840    16.8750    62.7880 hc         1 MOL       0.000000
     21 H6          27.1040    15.2320    63.2920 hc         1 MOL       0.000000
     22 H7          25.6200    16.0200    63.7720 hc         1 MOL       0.000000
     23 H8          24.5230    13.7060    60.9970 hc         1 MOL       0.000000
     24 H9          24.2540    14.1160    62.6750 hc         1 MOL       0.000000
     25 H10         25.7380    13.3280    62.1940 hc         1 MOL       0.000000
     26 H11         23.5340    15.9600    61.7870 h1         1 MOL       0.000000
     27 H12         24.3460    16.4200    60.2800 h1         1 MOL       0.000000
     28 H13         27.0350    19.3940    59.4150 h1         1 MOL       0.000000
     29 H14         28.7840    19.1660    59.5230 h1         1 MOL       0.000000
     30 H15         27.1990    20.9110    61.0670 hc         1 MOL       0.000000
     31 H16         28.9200    20.5460    61.2520 hc         1 MOL       0.000000
     32 H17         29.5050    18.9500    63.0320 ho         1 MOL       0.000000
@<TRIPOS>BOND
     1     1     2 1   
     2     1    19 1   
     3     2     4 1   
     4     2     3 1   
     5     3    20 1   
     6     3    21 1   
     7     3    22 1   
     8     4    23 1   
     9     4    24 1   
    10     4    25 1   
    11     5     2 1   
    12     5     6 1   
    13     5    26 1   
    14     5    27 1   
    15     7     6 1   
    16     8     1 1   
    17     9     8 1   
    18    10     1 1   
    19    10    12 1   
    20    11    10 2   
    21    12    13 1   
    22    14    12 1   
    23    14    15 1   
    24    14    28 1   
    25    14    29 1   
    26    15    16 1   
    27    15    30 1   
    28    15    31 1   
    29    16    18 2   
    30    16    17 1   
    31    17    32 1   
@<TRIPOS>SUBSTRUCTURE
     1 MOL         1 TEMP              0 ****  ****    0 ROOT
