@<TRIPOS>MOLECULE
MOL
   32    35     1     0     0
SMALL
No Charge or Current Charge


@<TRIPOS>ATOM
      1 C1           8.5470     7.7110    24.3250 ca         1 MOL       0.000000
      2 C2           7.4310     7.3680    23.3860 cc         1 MOL       0.000000
      3 C3           9.4270     8.5430    23.5930 ca         1 MOL       0.000000
      4 N1           8.9770     8.7290    22.3200 na         1 MOL       0.000000
      5 H1           9.4640     9.3050    21.6180 hn         1 MOL       0.000000
      6 C4          10.5990     9.0750    24.1680 ca         1 MOL       0.000000
      7 C5          10.8970     8.7490    25.5160 ca         1 MOL       0.000000
      8 C6          10.0160     7.9050    26.2620 ca         1 MOL       0.000000
      9 C7           8.8230     7.3760    25.6670 ca         1 MOL       0.000000
     10 C8           7.7970     8.0590    22.0770 cc         1 MOL       0.000000
     11 C9           7.1230     8.0540    20.8940 cd         1 MOL       0.000000
     12 C10          7.8060     8.6990    19.6920 c          1 MOL       0.000000
     13 N2           6.9000     8.5990    18.6450 n          1 MOL       0.000000
     14 H2           7.0740     8.9510    17.6930 hn         1 MOL       0.000000
     15 C11          5.7310     7.9660    19.0410 ca         1 MOL       0.000000
     16 C12          5.7910     7.5980    20.4120 ca         1 MOL       0.000000
     17 C13          4.6110     7.7180    18.2160 ca         1 MOL       0.000000
     18 C14          3.4930     7.0720    18.7950 ca         1 MOL       0.000000
     19 C15          3.5180     6.6870    20.1710 ca         1 MOL       0.000000
     20 C16          4.6720     6.9490    20.9820 ca         1 MOL       0.000000
     21 O1           8.9220     9.2180    19.6380 o          1 MOL       0.000000
     22 N3           6.3470     6.6780    23.5680 n2         1 MOL       0.000000
     23 O2           6.1610     6.1360    24.8400 oh         1 MOL       0.000000
     24 H3           6.6980     6.6820    25.5290 ho         1 MOL       0.000000
     25 H4          11.2250     9.6870    23.6220 ha         1 MOL       0.000000
     26 H5          11.7510     9.1220    25.9590 ha         1 MOL       0.000000
     27 H6          10.2420     7.6730    27.2420 ha         1 MOL       0.000000
     28 H7           8.1850     6.7680    26.2050 ha         1 MOL       0.000000
     29 H8           4.6080     7.9990    17.2230 ha         1 MOL       0.000000
     30 H9           2.6570     6.8780    18.2220 ha         1 MOL       0.000000
     31 H10          2.6980     6.2160    20.5850 ha         1 MOL       0.000000
     32 H11          4.6850     6.6660    21.9740 ha         1 MOL       0.000000
@<TRIPOS>BOND
     1     1     9 ar  
     2     2    22 2   
     3     2     1 1   
     4     3     6 ar  
     5     3     1 ar  
     6     4     3 1   
     7     5     4 1   
     8     6     7 ar  
     9     6    25 1   
    10     7     8 ar  
    11     7    26 1   
    12     8    27 1   
    13     9     8 ar  
    14     9    28 1   
    15    10     4 1   
    16    10     2 1   
    17    11    10 2   
    18    12    11 1   
    19    13    15 1   
    20    13    12 1   
    21    14    13 1   
    22    15    16 ar  
    23    16    11 1   
    24    16    20 ar  
    25    17    18 ar  
    26    17    15 ar  
    27    17    29 1   
    28    18    19 ar  
    29    18    30 1   
    30    19    20 ar  
    31    19    31 1   
    32    20    32 1   
    33    21    12 2   
    34    22    23 1   
    35    23    24 1   
@<TRIPOS>SUBSTRUCTURE
     1 MOL         1 TEMP              0 ****  ****    0 ROOT
