@<TRIPOS>MOLECULE
MOL
   32    35     1     0     0
SMALL
No Charge or Current Charge


@<TRIPOS>ATOM
      1 C1           7.4400     2.7150    19.8120 ca         1 MOL       0.000000
      2 C2           6.5690     3.5390    20.7110 cc         1 MOL       0.000000
      3 C3           8.2880     3.6320    19.1470 ca         1 MOL       0.000000
      4 N1           8.0200     4.9120    19.5320 na         1 MOL       0.000000
      5 H1           8.5250     5.7360    19.1740 hn         1 MOL       0.000000
      6 C4           9.2610     3.2080    18.2200 ca         1 MOL       0.000000
      7 C5           9.3730     1.8200    17.9470 ca         1 MOL       0.000000
      8 C6           8.5170     0.8860    18.6100 ca         1 MOL       0.000000
      9 C7           7.5360     1.3310    19.5570 ca         1 MOL       0.000000
     10 C8           6.9980     4.9800    20.4540 cc         1 MOL       0.000000
     11 C9           6.5100     6.1250    21.0070 cd         1 MOL       0.000000
     12 C10          7.0130     7.4500    20.4410 c          1 MOL       0.000000
     13 N2           6.4030     8.4390    21.1990 n          1 MOL       0.000000
     14 H2           6.5490     9.4490    21.0580 hn         1 MOL       0.000000
     15 C11          5.5730     7.8990    22.1700 ca         1 MOL       0.000000
     16 C12          5.5830     6.4790    22.1150 ca         1 MOL       0.000000
     17 C13          4.8170     8.6370    23.1080 ca         1 MOL       0.000000
     18 C14          4.0350     7.9160    24.0420 ca         1 MOL       0.000000
     19 C15          4.0190     6.4870    24.0150 ca         1 MOL       0.000000
     20 C16          4.7940     5.7660    23.0470 ca         1 MOL       0.000000
     21 O1           7.8060     7.6310    19.5160 o          1 MOL       0.000000
     22 N3           5.6590     3.1920    21.5680 n2         1 MOL       0.000000
     23 O2           5.4110     1.8240    21.6920 oh         1 MOL       0.000000
     24 H3           6.0590     1.4180    22.3830 ho         1 MOL       0.000000
     25 H4           9.8770     3.8900    17.7510 ha         1 MOL       0.000000
     26 H5          10.0740     1.4840    17.2680 ha         1 MOL       0.000000
     27 H6           8.6060    -0.1210    18.4040 ha         1 MOL       0.000000
     28 H7           6.9180     0.6580    20.0380 ha         1 MOL       0.000000
     29 H8           4.8340     9.6690    23.1120 ha         1 MOL       0.000000
     30 H9           3.4750     8.4240    24.7440 ha         1 MOL       0.000000
     31 H10          3.4450     5.9690    24.6980 ha         1 MOL       0.000000
     32 H11          4.7760     4.7340    23.0310 ha         1 MOL       0.000000
@<TRIPOS>BOND
     1     1     2 1   
     2     2    22 2   
     3     3     4 1   
     4     3     1 ar  
     5     4    10 1   
     6     5     4 1   
     7     6     3 ar  
     8     6    25 1   
     9     7     6 ar  
    10     7     8 ar  
    11     7    26 1   
    12     8     9 ar  
    13     8    27 1   
    14     9     1 ar  
    15     9    28 1   
    16    10     2 1   
    17    10    11 2   
    18    11    16 1   
    19    12    11 1   
    20    12    13 1   
    21    13    15 1   
    22    14    13 1   
    23    15    17 ar  
    24    16    15 ar  
    25    16    20 ar  
    26    17    18 ar  
    27    17    29 1   
    28    18    30 1   
    29    19    18 ar  
    30    19    31 1   
    31    20    19 ar  
    32    20    32 1   
    33    21    12 2   
    34    22    23 1   
    35    23    24 1   
@<TRIPOS>SUBSTRUCTURE
     1 MOL         1 TEMP              0 ****  ****    0 ROOT
