@<TRIPOS>MOLECULE
MOL
   32    35     1     0     0
SMALL
No Charge or Current Charge


@<TRIPOS>ATOM
      1 C1           5.8580     6.9480    21.4070 ca         1 MOL       0.000000
      2 C2           6.6440     6.0630    20.4890 cc         1 MOL       0.000000
      3 C3           5.2560     6.0860    22.3550 ca         1 MOL       0.000000
      4 N1           5.5780     4.7860    22.1050 na         1 MOL       0.000000
      5 H1           5.2490     3.9930    22.6760 hn         1 MOL       0.000000
      6 C4           4.4410     6.5770    23.3950 ca         1 MOL       0.000000
      7 C5           4.2180     7.9760    23.4750 ca         1 MOL       0.000000
      8 C6           4.8180     8.8540    22.5180 ca         1 MOL       0.000000
      9 C7           5.6510     8.3420    21.4700 ca         1 MOL       0.000000
     10 C8           6.3920     4.6490    21.0010 cc         1 MOL       0.000000
     11 C9           6.8630     3.4690    20.5100 cd         1 MOL       0.000000
     12 C10          6.3150     2.1830    21.1220 c          1 MOL       0.000000
     13 N2           6.9820     1.1480    20.4830 n          1 MOL       0.000000
     14 H2           6.8290     0.1490    20.6840 hn         1 MOL       0.000000
     15 C11          7.8800     1.6250    19.5400 ca         1 MOL       0.000000
     16 C12          7.8640     3.0450    19.4950 ca         1 MOL       0.000000
     17 C13          8.7190     0.8290    18.7280 ca         1 MOL       0.000000
     18 C14          9.5890     1.4890    17.8280 ca         1 MOL       0.000000
     19 C15          9.6000     2.9170    17.7550 ca         1 MOL       0.000000
     20 C16          8.7330     3.6970    18.5900 ca         1 MOL       0.000000
     21 O1           5.4680     2.0620    22.0080 o          1 MOL       0.000000
     22 N3           7.4160     6.3480    19.4860 n2         1 MOL       0.000000
     23 O2           7.5510     7.7010    19.1700 oh         1 MOL       0.000000
     24 H3           8.5150     7.8860    18.8560 ho         1 MOL       0.000000
     25 H4           4.0170     5.9340    24.0820 ha         1 MOL       0.000000
     26 H5           3.6220     8.3610    24.2250 ha         1 MOL       0.000000
     27 H6           4.6490     9.8700    22.5830 ha         1 MOL       0.000000
     28 H7           6.0870     8.9750    20.7810 ha         1 MOL       0.000000
     29 H8           8.6980    -0.2010    18.7890 ha         1 MOL       0.000000
     30 H9          10.2170     0.9380    17.2230 ha         1 MOL       0.000000
     31 H10         10.2370     3.3910    17.0960 ha         1 MOL       0.000000
     32 H11          8.7430     4.7270    18.5310 ha         1 MOL       0.000000
@<TRIPOS>BOND
     1     1     9 ar  
     2     1     3 ar  
     3     2    10 1   
     4     2     1 1   
     5     3     6 ar  
     6     4     3 1   
     7     4     5 1   
     8     6     7 ar  
     9     6    25 1   
    10     7    26 1   
    11     8     7 ar  
    12     8    27 1   
    13     9     8 ar  
    14     9    28 1   
    15    10     4 1   
    16    11    10 2   
    17    11    12 1   
    18    12    21 2   
    19    13    14 1   
    20    13    12 1   
    21    15    13 1   
    22    16    15 ar  
    23    16    11 1   
    24    17    15 ar  
    25    17    29 1   
    26    18    17 ar  
    27    18    30 1   
    28    19    18 ar  
    29    19    20 ar  
    30    19    31 1   
    31    20    16 ar  
    32    20    32 1   
    33    22     2 2   
    34    23    22 1   
    35    24    23 1   
@<TRIPOS>SUBSTRUCTURE
     1 MOL         1 TEMP              0 ****  ****    0 ROOT
