@<TRIPOS>MOLECULE
MOL
   38    40     1     0     0
SMALL
No Charge or Current Charge


@<TRIPOS>ATOM
      1 C1          37.0270    58.1120    75.3320 cc         1 MOL       0.000000
      2 C2          38.4060    57.9180    75.7100 cc         1 MOL       0.000000
      3 C3          38.9110    57.7100    77.0240 cd         1 MOL       0.000000
      4 C4          37.9670    57.7330    78.0780 cd         1 MOL       0.000000
      5 C5          38.3670    57.6370    79.4040 cc         1 MOL       0.000000
      6 C6          37.4670    57.7600    80.5220 cc         1 MOL       0.000000
      7 C7          36.0890    58.0150    80.0650 cc         1 MOL       0.000000
      8 C8          35.6280    58.1360    78.7710 cd         1 MOL       0.000000
      9 C9          36.5670    57.9850    77.7930 cd         1 MOL       0.000000
     10 C10         36.1760    58.1560    76.4900 cc         1 MOL       0.000000
     11 C11         37.8380    57.6650    81.9270 c2         1 MOL       0.000000
     12 O1          37.0590    57.0870    82.6760 o          1 MOL       0.000000
     13 N1          38.9130    58.4280    82.3090 n          1 MOL       0.000000
     14 H1          39.4320    58.9510    81.5900 hn         1 MOL       0.000000
     15 C12         39.3220    58.5170    83.6220 ca         1 MOL       0.000000
     16 C13         40.7100    58.4040    83.7540 ca         1 MOL       0.000000
     17 C14         41.2810    58.3900    85.0270 ca         1 MOL       0.000000
     18 C15         40.4220    58.5680    86.1550 ca         1 MOL       0.000000
     19 C16         39.0500    58.7770    86.0380 ca         1 MOL       0.000000
     20 C17         38.4900    58.7580    84.7500 ca         1 MOL       0.000000
     21 C18         36.5410    58.2510    73.9230 c2         1 MOL       0.000000
     22 N2          35.7980    59.3660    73.6840 nh         1 MOL       0.000000
     23 H2          35.6280    60.0440    74.4410 hn         1 MOL       0.000000
     24 H3          35.4060    59.5320    72.7460 hn         1 MOL       0.000000
     25 N3          36.8240    57.2920    72.9890 nh         1 MOL       0.000000
     26 H4          37.7860    57.1850    72.6370 hn         1 MOL       0.000000
     27 H5          36.0750    56.6780    72.6380 hn         1 MOL       0.000000
     28 H6          39.1000    57.9310    74.9460 ha         1 MOL       0.000000
     29 H7          39.9150    57.5500    77.2000 ha         1 MOL       0.000000
     30 H8          39.3660    57.4680    79.6000 ha         1 MOL       0.000000
     31 H9          35.3790    58.1160    80.8080 ha         1 MOL       0.000000
     32 H10         34.6370    58.3280    78.5560 ha         1 MOL       0.000000
     33 H11         35.1730    58.3340    76.3240 ha         1 MOL       0.000000
     34 H12         41.3070    58.3310    82.9160 ha         1 MOL       0.000000
     35 H13         42.2970    58.2550    85.1510 ha         1 MOL       0.000000
     36 H14         40.8370    58.5400    87.0990 ha         1 MOL       0.000000
     37 H15         38.4630    58.9410    86.8710 ha         1 MOL       0.000000
     38 H16         37.4780    58.9180    84.6230 ha         1 MOL       0.000000
@<TRIPOS>BOND
     1     1     2 1   
     2     1    10 1   
     3     2     3 2   
     4     2    28 1   
     5     3     4 1   
     6     3    29 1   
     7     4     5 2   
     8     5     6 1   
     9     5    30 1   
    10     6    11 2   
    11     7     6 1   
    12     7    31 1   
    13     8     7 2   
    14     8    32 1   
    15     9     4 1   
    16     9     8 1   
    17    10     9 2   
    18    10    33 1   
    19    11    13 1   
    20    11    12 1   
    21    13    15 1   
    22    14    13 1   
    23    15    16 ar  
    24    15    20 ar  
    25    16    17 ar  
    26    16    34 1   
    27    17    18 ar  
    28    17    35 1   
    29    18    36 1   
    30    19    18 ar  
    31    19    37 1   
    32    20    19 ar  
    33    20    38 1   
    34    21     1 2   
    35    22    21 1   
    36    22    23 1   
    37    24    22 1   
    38    25    21 1   
    39    26    25 1   
    40    27    25 1   
@<TRIPOS>SUBSTRUCTURE
     1 MOL         1 TEMP              0 ****  ****    0 ROOT
