@<TRIPOS>MOLECULE
MOL
   38    40     1     0     0
SMALL
No Charge or Current Charge


@<TRIPOS>ATOM
      1 C1          41.7370    59.8080    87.1400 cc         1 MOL       0.000000
      2 C2          41.9270    58.4820    87.6770 cc         1 MOL       0.000000
      3 C3          42.3210    57.3180    86.9620 cd         1 MOL       0.000000
      4 C4          42.5110    57.4640    85.5670 cd         1 MOL       0.000000
      5 C5          42.8020    56.3700    84.7620 cc         1 MOL       0.000000
      6 C6          42.9020    56.4380    83.3260 cc         1 MOL       0.000000
      7 C7          42.6400    57.8050    82.8430 cc         1 MOL       0.000000
      8 C8          42.3320    58.9280    83.5820 cd         1 MOL       0.000000
      9 C9          42.2810    58.7490    84.9340 cd         1 MOL       0.000000
     10 C10         41.9200    59.8170    85.7130 cc         1 MOL       0.000000
     11 C11         43.2060    55.3220    82.4420 c2         1 MOL       0.000000
     12 O1          43.7310    54.3350    82.9440 o          1 MOL       0.000000
     13 N1          43.0780    55.5760    81.1000 n          1 MOL       0.000000
     14 H1          42.7120    56.4910    80.8000 hn         1 MOL       0.000000
     15 C12         43.4230    54.6500    80.1390 ca         1 MOL       0.000000
     16 C13         44.6220    54.9730    79.4960 ca         1 MOL       0.000000
     17 C14         45.0710    54.1820    78.4380 ca         1 MOL       0.000000
     18 C15         44.3160    53.0160    78.0990 ca         1 MOL       0.000000
     19 C16         43.1710    52.6270    78.7900 ca         1 MOL       0.000000
     20 C17         42.7200    53.4530    79.8320 ca         1 MOL       0.000000
     21 C18         41.3940    61.0160    87.9530 c2         1 MOL       0.000000
     22 N2          41.0720    62.1210    87.2260 nh         1 MOL       0.000000
     23 H2          41.0590    62.0740    86.1970 hn         1 MOL       0.000000
     24 H3          40.8430    63.0030    87.7050 hn         1 MOL       0.000000
     25 N3          41.4420    60.9740    89.3200 nh         1 MOL       0.000000
     26 H4          42.2820    60.6160    89.7950 hn         1 MOL       0.000000
     27 H5          40.6370    61.3010    89.8740 hn         1 MOL       0.000000
     28 H6          41.7590    58.3660    88.6890 ha         1 MOL       0.000000
     29 H7          42.4610    56.4120    87.4360 ha         1 MOL       0.000000
     30 H8          42.9550    55.4570    85.2180 ha         1 MOL       0.000000
     31 H9          42.6940    57.9390    81.8210 ha         1 MOL       0.000000
     32 H10         42.1520    59.8440    83.1410 ha         1 MOL       0.000000
     33 H11         41.7640    60.7150    85.2290 ha         1 MOL       0.000000
     34 H12         45.1710    55.7910    79.8020 ha         1 MOL       0.000000
     35 H13         45.9250    54.4320    77.9150 ha         1 MOL       0.000000
     36 H14         44.6340    52.4370    77.3060 ha         1 MOL       0.000000
     37 H15         42.6700    51.7590    78.5440 ha         1 MOL       0.000000
     38 H16         41.8810    53.1920    80.3730 ha         1 MOL       0.000000
@<TRIPOS>BOND
     1     1     2 1   
     2     1    21 2   
     3     2    28 1   
     4     3     2 2   
     5     3    29 1   
     6     4     3 1   
     7     5     4 2   
     8     5    30 1   
     9     6     5 1   
    10     7     6 1   
    11     7     8 2   
    12     7    31 1   
    13     8     9 1   
    14     8    32 1   
    15     9     4 1   
    16     9    10 2   
    17    10     1 1   
    18    10    33 1   
    19    11    12 1   
    20    11     6 2   
    21    13    11 1   
    22    14    13 1   
    23    15    13 1   
    24    16    15 ar  
    25    16    34 1   
    26    17    16 ar  
    27    17    35 1   
    28    18    17 ar  
    29    18    19 ar  
    30    18    36 1   
    31    19    20 ar  
    32    19    37 1   
    33    20    15 ar  
    34    20    38 1   
    35    21    25 1   
    36    22    24 1   
    37    22    21 1   
    38    23    22 1   
    39    25    26 1   
    40    25    27 1   
@<TRIPOS>SUBSTRUCTURE
     1 MOL         1 TEMP              0 ****  ****    0 ROOT
