@<TRIPOS>MOLECULE
MOL
   35    36     1     0     0
SMALL
No Charge or Current Charge


@<TRIPOS>ATOM
      1 C1          31.8660     6.2470    13.0340 c3         1 MOL       0.000000
      2 N1          30.7900     6.6730    13.9440 na         1 MOL       0.000000
      3 C2          29.6140     6.2240    13.7800 cc         1 MOL       0.000000
      4 S1          28.4240     6.8210    14.9310 ss         1 MOL       0.000000
      5 C3          29.8160     7.7380    15.6090 cd         1 MOL       0.000000
      6 C4          30.9630     7.4960    14.9200 cc         1 MOL       0.000000
      7 C5          32.2980     8.1410    15.2700 c3         1 MOL       0.000000
      8 C6          29.6700     8.6560    16.7870 c3         1 MOL       0.000000
      9 C7          29.4020     7.7390    18.0080 c3         1 MOL       0.000000
     10 O1          30.4200     6.7600    18.0760 oh         1 MOL       0.000000
     11 H1          31.1930     7.1070    18.6620 ho         1 MOL       0.000000
     12 C8          32.2260     7.0420    11.7950 ca         1 MOL       0.000000
     13 C9          31.5400     6.8150    10.5840 ca         1 MOL       0.000000
     14 N2          31.8670     7.5490     9.4370 nb         1 MOL       0.000000
     15 C10         32.8850     8.5120     9.4710 ca         1 MOL       0.000000
     16 C11         33.2170     9.2870     8.2320 c3         1 MOL       0.000000
     17 N3          33.5830     8.7490    10.6760 nb         1 MOL       0.000000
     18 C12         33.2580     8.0140    11.8350 ca         1 MOL       0.000000
     19 N4          30.5140     5.8630    10.5250 nh         1 MOL       0.000000
     20 H2          30.2370     5.4600     9.6190 hn         1 MOL       0.000000
     21 H3          30.0380     5.5660    11.3880 hn         1 MOL       0.000000
     22 H4          32.7560     6.1930    13.6260 h1         1 MOL       0.000000
     23 H5          31.4670     5.3460    12.6170 h1         1 MOL       0.000000
     24 H6          29.6510     5.1580    13.8630 h5         1 MOL       0.000000
     25 H7          33.0490     7.7980    14.5890 hc         1 MOL       0.000000
     26 H8          32.5730     7.8730    16.2690 hc         1 MOL       0.000000
     27 H9          32.2100     9.2050    15.1970 hc         1 MOL       0.000000
     28 H10         28.8490     9.3260    16.6370 hc         1 MOL       0.000000
     29 H11         30.5450     9.2550    16.9300 hc         1 MOL       0.000000
     30 H12         28.4510     7.2610    17.8970 h1         1 MOL       0.000000
     31 H13         29.3980     8.3210    18.9060 h1         1 MOL       0.000000
     32 H14         32.5850     8.9660     7.4310 hc         1 MOL       0.000000
     33 H15         34.2400     9.1180     7.9690 hc         1 MOL       0.000000
     34 H16         33.0630    10.3310     8.4120 hc         1 MOL       0.000000
     35 H17         33.7720     8.1840    12.7140 h4         1 MOL       0.000000
@<TRIPOS>BOND
     1     1     2 1   
     2     1    22 1   
     3     1    23 1   
     4     2     6 1   
     5     3     2 2   
     6     3     4 1   
     7     3    24 1   
     8     4     5 1   
     9     5     8 1   
    10     6     7 1   
    11     6     5 2   
    12     7    25 1   
    13     7    26 1   
    14     7    27 1   
    15     8     9 1   
    16     8    28 1   
    17     8    29 1   
    18     9    10 1   
    19     9    30 1   
    20     9    31 1   
    21    10    11 1   
    22    12    18 ar  
    23    12     1 1   
    24    13    12 ar  
    25    14    15 ar  
    26    14    13 ar  
    27    15    17 ar  
    28    16    15 1   
    29    16    32 1   
    30    16    33 1   
    31    16    34 1   
    32    17    18 ar  
    33    18    35 1   
    34    19    13 1   
    35    19    21 1   
    36    20    19 1   
@<TRIPOS>SUBSTRUCTURE
     1 MOL         1 TEMP              0 ****  ****    0 ROOT
