MODEL 1
REMARK VINA RESULT:      -7.2      0.000      0.000
REMARK  6 active torsions:
REMARK  status: ('A' for Active; 'I' for Inactive)
REMARK    1  A    between atoms: N_2  and  C8_16 
REMARK    2  A    between atoms: O_6  and  C2_8 
REMARK    3  A    between atoms: C2_8  and  C3_9 
REMARK    4  A    between atoms: C3_9  and  C5_12 
REMARK    5  A    between atoms: N1_14  and  C7_15 
REMARK    6  A    between atoms: C7_15  and  C11_21 
ROOT
ATOM      1  C7  UNL d          31.861   6.072  13.024  0.00  0.00     0.172 C 
ENDROOT
BRANCH   1   2
ATOM      2  N1  UNL d          30.747   6.440  13.913  0.00  0.00    -0.349 N 
ATOM      3  C4  UNL d          30.449   7.663  14.074  0.00  0.00     0.141 A 
ATOM      4  S   UNL d          29.105   7.962  15.170  0.00  0.00    -0.087 SA
ATOM      5  C5  UNL d          29.074   6.169  15.322  0.00  0.00     0.008 A 
ATOM      6  C6  UNL d          30.037   5.582  14.562  0.00  0.00     0.021 A 
ATOM      7  C1  UNL d          30.247   4.074  14.500  0.00  0.00     0.069 C 
BRANCH   5   8
ATOM      8  C3  UNL d          28.091   5.459  16.206  0.00  0.00     0.074 C 
BRANCH   8   9
ATOM      9  C2  UNL d          28.101   6.227  17.552  0.00  0.00     0.169 C 
BRANCH   9  10
ATOM     10  O   UNL d          26.772   6.569  17.893  0.00  0.00    -0.401 OA
ATOM     11  H8  UNL d          26.740   7.548  18.214  0.00  0.00     0.209 HD
ENDBRANCH   9  10
ENDBRANCH   8   9
ENDBRANCH   5   8
ENDBRANCH   1   2
BRANCH   1  12
ATOM     12  C11 UNL d          32.225   6.905  11.812  0.00  0.00     0.023 A 
ATOM     13  C8  UNL d          31.482   6.784  10.620  0.00  0.00     0.132 A 
ATOM     14  N2  UNL d          31.813   7.554   9.498  0.00  0.00    -0.216 NA
ATOM     15  C9  UNL d          32.891   8.449   9.539  0.00  0.00     0.124 A 
ATOM     16  C   UNL d          33.226   9.265   8.327  0.00  0.00     0.093 C 
ATOM     17  N3  UNL d          33.647   8.579  10.725  0.00  0.00    -0.245 NA
ATOM     18  C10 UNL d          33.319   7.807  11.859  0.00  0.00     0.131 A 
BRANCH  13  19
ATOM     19  N   UNL d          30.396   5.903  10.556  0.00  0.00    -0.383 N 
ATOM     20  H3  UNL d          29.923   5.604  11.421  0.00  0.00     0.157 HD
ATOM     21  H4  UNL d          30.070   5.553   9.644  0.00  0.00     0.157 HD
ENDBRANCH  13  19
ENDBRANCH   1  12
TORSDOF 6
ENDMDL
MODEL 2
REMARK VINA RESULT:      -7.0      1.464      1.895
REMARK  6 active torsions:
REMARK  status: ('A' for Active; 'I' for Inactive)
REMARK    1  A    between atoms: N_2  and  C8_16 
REMARK    2  A    between atoms: O_6  and  C2_8 
REMARK    3  A    between atoms: C2_8  and  C3_9 
REMARK    4  A    between atoms: C3_9  and  C5_12 
REMARK    5  A    between atoms: N1_14  and  C7_15 
REMARK    6  A    between atoms: C7_15  and  C11_21 
ROOT
ATOM      1  C7  UNL d          31.866   6.247  13.034  0.00  0.00     0.172 C 
ENDROOT
BRANCH   1   2
ATOM      2  N1  UNL d          30.790   6.673  13.944  0.00  0.00    -0.349 N 
ATOM      3  C4  UNL d          29.614   6.224  13.780  0.00  0.00     0.141 A 
ATOM      4  S   UNL d          28.424   6.821  14.931  0.00  0.00    -0.087 SA
ATOM      5  C5  UNL d          29.816   7.738  15.609  0.00  0.00     0.008 A 
ATOM      6  C6  UNL d          30.963   7.496  14.920  0.00  0.00     0.021 A 
ATOM      7  C1  UNL d          32.298   8.141  15.270  0.00  0.00     0.069 C 
BRANCH   5   8
ATOM      8  C3  UNL d          29.670   8.656  16.787  0.00  0.00     0.074 C 
BRANCH   8   9
ATOM      9  C2  UNL d          29.402   7.739  18.008  0.00  0.00     0.169 C 
BRANCH   9  10
ATOM     10  O   UNL d          30.420   6.760  18.076  0.00  0.00    -0.401 OA
ATOM     11  H8  UNL d          31.193   7.107  18.662  0.00  0.00     0.209 HD
ENDBRANCH   9  10
ENDBRANCH   8   9
ENDBRANCH   5   8
ENDBRANCH   1   2
BRANCH   1  12
ATOM     12  C11 UNL d          32.226   7.042  11.795  0.00  0.00     0.023 A 
ATOM     13  C8  UNL d          31.540   6.815  10.584  0.00  0.00     0.132 A 
ATOM     14  N2  UNL d          31.867   7.549   9.437  0.00  0.00    -0.216 NA
ATOM     15  C9  UNL d          32.885   8.512   9.471  0.00  0.00     0.124 A 
ATOM     16  C   UNL d          33.217   9.287   8.232  0.00  0.00     0.093 C 
ATOM     17  N3  UNL d          33.583   8.749  10.676  0.00  0.00    -0.245 NA
ATOM     18  C10 UNL d          33.258   8.014  11.835  0.00  0.00     0.131 A 
BRANCH  13  19
ATOM     19  N   UNL d          30.514   5.863  10.525  0.00  0.00    -0.383 N 
ATOM     20  H3  UNL d          30.237   5.460   9.619  0.00  0.00     0.157 HD
ATOM     21  H4  UNL d          30.038   5.566  11.388  0.00  0.00     0.157 HD
ENDBRANCH  13  19
ENDBRANCH   1  12
TORSDOF 6
ENDMDL
MODEL 3
REMARK VINA RESULT:      -6.9      0.803      1.763
REMARK  6 active torsions:
REMARK  status: ('A' for Active; 'I' for Inactive)
REMARK    1  A    between atoms: N_2  and  C8_16 
REMARK    2  A    between atoms: O_6  and  C2_8 
REMARK    3  A    between atoms: C2_8  and  C3_9 
REMARK    4  A    between atoms: C3_9  and  C5_12 
REMARK    5  A    between atoms: N1_14  and  C7_15 
REMARK    6  A    between atoms: C7_15  and  C11_21 
ROOT
ATOM      1  C7  UNL d          31.791   6.784  13.353  0.00  0.00     0.172 C 
ENDROOT
BRANCH   1   2
ATOM      2  N1  UNL d          30.531   7.109  14.039  0.00  0.00    -0.349 N 
ATOM      3  C4  UNL d          30.105   8.305  14.039  0.00  0.00     0.141 A 
ATOM      4  S   UNL d          28.593   8.555  14.904  0.00  0.00    -0.087 SA
ATOM      5  C5  UNL d          28.698   6.787  15.221  0.00  0.00     0.008 A 
ATOM      6  C6  UNL d          29.811   6.240  14.661  0.00  0.00     0.021 A 
ATOM      7  C1  UNL d          30.160   4.761  14.773  0.00  0.00     0.069 C 
BRANCH   5   8
ATOM      8  C3  UNL d          27.662   6.056  16.022  0.00  0.00     0.074 C 
BRANCH   8   9
ATOM      9  C2  UNL d          28.034   6.290  17.509  0.00  0.00     0.169 C 
BRANCH   9  10
ATOM     10  O   UNL d          26.860   6.605  18.231  0.00  0.00    -0.401 OA
ATOM     11  H8  UNL d          26.696   7.622  18.195  0.00  0.00     0.209 HD
ENDBRANCH   9  10
ENDBRANCH   8   9
ENDBRANCH   5   8
ENDBRANCH   1   2
BRANCH   1  12
ATOM     12  C11 UNL d          32.164   7.412  12.025  0.00  0.00     0.023 A 
ATOM     13  C8  UNL d          33.193   8.375  11.961  0.00  0.00     0.132 A 
ATOM     14  N2  UNL d          33.543   8.957  10.736  0.00  0.00    -0.216 NA
ATOM     15  C9  UNL d          32.872   8.599   9.558  0.00  0.00     0.124 A 
ATOM     16  C   UNL d          33.265   9.233   8.257  0.00  0.00     0.093 C 
ATOM     17  N3  UNL d          31.838   7.638   9.607  0.00  0.00    -0.245 NA
ATOM     18  C10 UNL d          31.480   7.048  10.837  0.00  0.00     0.131 A 
BRANCH  13  19
ATOM     19  N   UNL d          33.882   8.744  13.122  0.00  0.00    -0.383 N 
ATOM     20  H3  UNL d          34.102   9.735  13.298  0.00  0.00     0.157 HD
ATOM     21  H4  UNL d          34.169   8.025  13.801  0.00  0.00     0.157 HD
ENDBRANCH  13  19
ENDBRANCH   1  12
TORSDOF 6
ENDMDL
