@<TRIPOS>MOLECULE
MOL
   35    36     1     0     0
SMALL
No Charge or Current Charge


@<TRIPOS>ATOM
      1 C1          31.7910     6.7840    13.3530 c3         1 MOL       0.000000
      2 N1          30.5310     7.1090    14.0390 na         1 MOL       0.000000
      3 C2          30.1050     8.3050    14.0390 cc         1 MOL       0.000000
      4 S1          28.5930     8.5550    14.9040 ss         1 MOL       0.000000
      5 C3          28.6980     6.7870    15.2210 cd         1 MOL       0.000000
      6 C4          29.8110     6.2400    14.6610 cc         1 MOL       0.000000
      7 C5          30.1600     4.7610    14.7730 c3         1 MOL       0.000000
      8 C6          27.6620     6.0560    16.0220 c3         1 MOL       0.000000
      9 C7          28.0340     6.2900    17.5090 c3         1 MOL       0.000000
     10 O1          26.8600     6.6050    18.2310 oh         1 MOL       0.000000
     11 H1          26.6960     7.6220    18.1950 ho         1 MOL       0.000000
     12 C8          32.1640     7.4120    12.0250 ca         1 MOL       0.000000
     13 C9          33.1930     8.3750    11.9610 ca         1 MOL       0.000000
     14 N2          33.5430     8.9570    10.7360 nb         1 MOL       0.000000
     15 C10         32.8720     8.5990     9.5580 ca         1 MOL       0.000000
     16 C11         33.2650     9.2330     8.2570 c3         1 MOL       0.000000
     17 N3          31.8380     7.6380     9.6070 nb         1 MOL       0.000000
     18 C12         31.4800     7.0480    10.8370 ca         1 MOL       0.000000
     19 N4          33.8820     8.7440    13.1220 nh         1 MOL       0.000000
     20 H2          34.1020     9.7350    13.2980 hn         1 MOL       0.000000
     21 H3          34.1690     8.0250    13.8010 hn         1 MOL       0.000000
     22 H4          32.5770     7.0340    14.0350 h1         1 MOL       0.000000
     23 H5          31.6450     5.7580    13.0850 h1         1 MOL       0.000000
     24 H6          29.9600     8.6060    13.0230 h5         1 MOL       0.000000
     25 H7          31.0760     4.5710    14.2550 hc         1 MOL       0.000000
     26 H8          29.3770     4.1760    14.3390 hc         1 MOL       0.000000
     27 H9          30.2720     4.4980    15.8040 hc         1 MOL       0.000000
     28 H10         27.6830     5.0110    15.7930 hc         1 MOL       0.000000
     29 H11         26.6750     6.4070    15.8030 hc         1 MOL       0.000000
     30 H12         28.7290     7.1000    17.5820 h1         1 MOL       0.000000
     31 H13         28.4820     5.4070    17.9140 h1         1 MOL       0.000000
     32 H14         32.6520     8.8440     7.4710 hc         1 MOL       0.000000
     33 H15         34.2920     9.0150     8.0500 hc         1 MOL       0.000000
     34 H16         33.1320    10.2930     8.3220 hc         1 MOL       0.000000
     35 H17         30.7200     6.3510    10.8730 h4         1 MOL       0.000000
@<TRIPOS>BOND
     1     1     2 1   
     2     1    22 1   
     3     1    23 1   
     4     2     3 2   
     5     2     6 1   
     6     3     4 1   
     7     3    24 1   
     8     4     5 1   
     9     5     8 1   
    10     6     7 1   
    11     6     5 2   
    12     7    25 1   
    13     7    26 1   
    14     7    27 1   
    15     8     9 1   
    16     8    28 1   
    17     8    29 1   
    18     9    10 1   
    19     9    30 1   
    20     9    31 1   
    21    11    10 1   
    22    12     1 1   
    23    13    12 ar  
    24    13    19 1   
    25    14    13 ar  
    26    15    17 ar  
    27    15    14 ar  
    28    16    15 1   
    29    16    32 1   
    30    16    33 1   
    31    16    34 1   
    32    17    18 ar  
    33    18    12 ar  
    34    18    35 1   
    35    19    20 1   
    36    19    21 1   
@<TRIPOS>SUBSTRUCTURE
     1 MOL         1 TEMP              0 ****  ****    0 ROOT
