@<TRIPOS>MOLECULE
MOL
   48    53     1     0     0
SMALL
No Charge or Current Charge


@<TRIPOS>ATOM
      1 C1          52.7840    54.3350    16.4750 ca         1 MOL       0.000000
      2 C2          53.3470    53.1580    17.0380 ca         1 MOL       0.000000
      3 C3          54.7040    52.9210    17.1780 ca         1 MOL       0.000000
      4 C4          55.5240    53.9620    16.7090 ca         1 MOL       0.000000
      5 C5          56.9870    54.1070    16.6770 cc         1 MOL       0.000000
      6 C6          57.2060    55.3230    16.1150 cd         1 MOL       0.000000
      7 N1          56.0650    55.9140    15.8110 na         1 MOL       0.000000
      8 C7          54.9930    55.1340    16.1510 ca         1 MOL       0.000000
      9 C8          53.6340    55.3650    16.0140 ca         1 MOL       0.000000
     10 C9          58.5820    55.8210    15.9190 c3         1 MOL       0.000000
     11 N2          59.6330    54.8270    16.0550 n          1 MOL       0.000000
     12 C10         60.8830    55.2760    15.8120 c          1 MOL       0.000000
     13 O1          61.1430    56.4130    15.5090 o          1 MOL       0.000000
     14 C11         62.0060    54.3450    15.9210 c3         1 MOL       0.000000
     15 N3          61.7790    53.0570    16.5760 n          1 MOL       0.000000
     16 C12         60.5540    52.5990    16.8040 c          1 MOL       0.000000
     17 O2          60.2930    51.5140    17.3490 o          1 MOL       0.000000
     18 C13         59.3740    53.4240    16.3970 c3         1 MOL       0.000000
     19 C14         58.0600    53.1640    17.1450 c3         1 MOL       0.000000
     20 C15         62.9070    52.2410    16.9840 c3         1 MOL       0.000000
     21 H1          55.9560    56.8610    15.4270 hn         1 MOL       0.000000
     22 C16         58.7010    57.0180    16.9260 ca         1 MOL       0.000000
     23 C17         58.8190    56.7890    18.3250 ca         1 MOL       0.000000
     24 C18         58.9290    57.8010    19.2530 ca         1 MOL       0.000000
     25 C19         58.9180    59.0890    18.7690 ca         1 MOL       0.000000
     26 O3          59.0120    60.2420    19.4930 os         1 MOL       0.000000
     27 C20         58.8060    59.3540    17.4400 ca         1 MOL       0.000000
     28 C21         58.6470    61.2280    18.5340 c3         1 MOL       0.000000
     29 O4          58.8180    60.7020    17.1850 os         1 MOL       0.000000
     30 C22         58.6970    58.3330    16.4930 ca         1 MOL       0.000000
     31 H2          51.7600    54.4370    16.4030 ha         1 MOL       0.000000
     32 H3          52.6970    52.4270    17.3660 ha         1 MOL       0.000000
     33 H4          55.0810    52.0540    17.5910 ha         1 MOL       0.000000
     34 H5          53.2650    56.2360    15.6010 ha         1 MOL       0.000000
     35 H6          58.7370    56.1230    14.9040 h1         1 MOL       0.000000
     36 H7          62.7800    54.8450    16.4650 h1         1 MOL       0.000000
     37 H8          62.2350    54.0890    14.9080 h1         1 MOL       0.000000
     38 H9          59.1760    52.9950    15.4370 h1         1 MOL       0.000000
     39 H10         58.2190    53.3050    18.1940 hc         1 MOL       0.000000
     40 H11         57.7450    52.1600    16.9490 hc         1 MOL       0.000000
     41 H12         63.8190    52.7420    16.7340 h1         1 MOL       0.000000
     42 H13         62.8670    51.2990    16.4780 h1         1 MOL       0.000000
     43 H14         62.8670    52.0800    18.0410 h1         1 MOL       0.000000
     44 H15         58.8220    55.8140    18.6620 ha         1 MOL       0.000000
     45 H16         59.0160    57.6030    20.2620 ha         1 MOL       0.000000
     46 H17         57.6230    61.5020    18.6800 h2         1 MOL       0.000000
     47 H18         59.2740    62.0860    18.6580 h2         1 MOL       0.000000
     48 H19         58.6150    58.5550    15.4890 ha         1 MOL       0.000000
@<TRIPOS>BOND
     1     1     2 ar  
     2     1    31 1   
     3     2     3 ar  
     4     2    32 1   
     5     3    33 1   
     6     4     3 ar  
     7     5     4 1   
     8     5    19 1   
     9     6     5 2   
    10     7     6 1   
    11     7     8 1   
    12     8     4 ar  
    13     9     8 ar  
    14     9     1 ar  
    15     9    34 1   
    16    10    11 1   
    17    10     6 1   
    18    10    22 1   
    19    10    35 1   
    20    11    18 1   
    21    12    14 1   
    22    12    11 1   
    23    13    12 2   
    24    14    15 1   
    25    14    36 1   
    26    14    37 1   
    27    15    16 1   
    28    15    20 1   
    29    16    17 2   
    30    18    16 1   
    31    18    19 1   
    32    18    38 1   
    33    19    39 1   
    34    19    40 1   
    35    20    41 1   
    36    20    42 1   
    37    20    43 1   
    38    21     7 1   
    39    22    23 ar  
    40    23    24 ar  
    41    23    44 1   
    42    24    45 1   
    43    25    24 ar  
    44    25    26 1   
    45    27    25 ar  
    46    28    26 1   
    47    28    46 1   
    48    28    47 1   
    49    29    27 1   
    50    29    28 1   
    51    30    22 ar  
    52    30    27 ar  
    53    30    48 1   
@<TRIPOS>SUBSTRUCTURE
     1 MOL         1 TEMP              0 ****  ****    0 ROOT
