@<TRIPOS>MOLECULE
MOL
   48    53     1     0     0
SMALL
No Charge or Current Charge


@<TRIPOS>ATOM
      1 C1          60.9690    64.2410    14.7170 ca         1 MOL       0.000000
      2 C2          61.7860    63.2210    14.1590 ca         1 MOL       0.000000
      3 C3          61.8550    61.9190    14.6280 ca         1 MOL       0.000000
      4 C4          61.0300    61.6600    15.7370 ca         1 MOL       0.000000
      5 C5          60.8100    60.4340    16.5180 cc         1 MOL       0.000000
      6 C6          59.9040    60.7810    17.4660 cd         1 MOL       0.000000
      7 N1          59.5610    62.0510    17.3480 na         1 MOL       0.000000
      8 C7          60.2140    62.6500    16.3050 ca         1 MOL       0.000000
      9 C8          60.1500    63.9490    15.8310 ca         1 MOL       0.000000
     10 C9          59.4310    59.7870    18.4510 c3         1 MOL       0.000000
     11 N2          60.2160    58.5670    18.5350 n          1 MOL       0.000000
     12 C10         59.8160    57.6910    19.4810 c          1 MOL       0.000000
     13 O1          58.8760    57.8740    20.2130 o          1 MOL       0.000000
     14 C11         60.5480    56.4350    19.6430 c3         1 MOL       0.000000
     15 N3          61.4840    56.0380    18.5900 n          1 MOL       0.000000
     16 C12         61.8970    56.8960    17.6660 c          1 MOL       0.000000
     17 O2          62.6930    56.6260    16.7520 o          1 MOL       0.000000
     18 C13         61.3830    58.3010    17.6870 c3         1 MOL       0.000000
     19 C14         61.4150    59.0680    16.3580 c3         1 MOL       0.000000
     20 C15         61.9930    54.6800    18.5470 c3         1 MOL       0.000000
     21 H1          58.8530    62.5420    17.9080 hn         1 MOL       0.000000
     22 C16         57.9290    59.5540    18.0650 ca         1 MOL       0.000000
     23 C17         56.9060    60.4200    18.5450 ca         1 MOL       0.000000
     24 C18         55.5730    60.2630    18.2360 ca         1 MOL       0.000000
     25 C19         55.2460    59.2040    17.4210 ca         1 MOL       0.000000
     26 O3          54.0010    58.8540    16.9850 os         1 MOL       0.000000
     27 C20         56.1900    58.3520    16.9410 ca         1 MOL       0.000000
     28 C21         54.2260    57.5530    16.4510 c3         1 MOL       0.000000
     29 O4          55.6420    57.3740    16.1490 os         1 MOL       0.000000
     30 C22         57.5440    58.5050    17.2470 ca         1 MOL       0.000000
     31 H2          60.9740    65.1900    14.3110 ha         1 MOL       0.000000
     32 H3          62.3700    63.4680    13.3450 ha         1 MOL       0.000000
     33 H4          62.4600    61.2010    14.2000 ha         1 MOL       0.000000
     34 H5          59.5410    64.6610    16.2650 ha         1 MOL       0.000000
     35 H6          59.5450    60.1550    19.4490 h1         1 MOL       0.000000
     36 H7          61.1070    56.5090    20.5530 h1         1 MOL       0.000000
     37 H8          59.7890    55.6810    19.6200 h1         1 MOL       0.000000
     38 H9          62.1700    58.7720    18.2380 h1         1 MOL       0.000000
     39 H10         62.4300    59.1690    16.0350 hc         1 MOL       0.000000
     40 H11         60.8470    58.5230    15.6330 hc         1 MOL       0.000000
     41 H12         62.6590    54.5750    17.7160 h1         1 MOL       0.000000
     42 H13         61.1770    53.9960    18.4390 h1         1 MOL       0.000000
     43 H14         62.5190    54.4670    19.4540 h1         1 MOL       0.000000
     44 H15         57.1770    61.2060    19.1560 ha         1 MOL       0.000000
     45 H16         54.8540    60.9090    18.5980 ha         1 MOL       0.000000
     46 H17         53.9210    56.8190    17.1670 h2         1 MOL       0.000000
     47 H18         53.6590    57.4410    15.5510 h2         1 MOL       0.000000
     48 H19         58.2450    57.8480    16.8700 ha         1 MOL       0.000000
@<TRIPOS>BOND
     1     1     9 ar  
     2     1    31 1   
     3     2     3 ar  
     4     2     1 ar  
     5     2    32 1   
     6     3     4 ar  
     7     3    33 1   
     8     4     8 ar  
     9     4     5 1   
    10     5     6 2   
    11     6    10 1   
    12     7     6 1   
    13     7    21 1   
    14     8     7 1   
    15     9     8 ar  
    16     9    34 1   
    17    10    11 1   
    18    10    35 1   
    19    11    12 1   
    20    12    14 1   
    21    12    13 2   
    22    14    36 1   
    23    14    37 1   
    24    15    14 1   
    25    16    18 1   
    26    16    15 1   
    27    17    16 2   
    28    18    11 1   
    29    18    38 1   
    30    19     5 1   
    31    19    18 1   
    32    19    39 1   
    33    19    40 1   
    34    20    15 1   
    35    20    41 1   
    36    20    42 1   
    37    20    43 1   
    38    22    10 1   
    39    22    23 ar  
    40    23    44 1   
    41    24    23 ar  
    42    24    45 1   
    43    25    24 ar  
    44    26    25 1   
    45    27    30 ar  
    46    27    25 ar  
    47    28    26 1   
    48    28    46 1   
    49    28    47 1   
    50    29    28 1   
    51    29    27 1   
    52    30    22 ar  
    53    30    48 1   
@<TRIPOS>SUBSTRUCTURE
     1 MOL         1 TEMP              0 ****  ****    0 ROOT
