@<TRIPOS>MOLECULE
MOL
   48    53     1     0     0
SMALL
No Charge or Current Charge


@<TRIPOS>ATOM
      1 C1          64.1160    54.1020    17.0840 ca         1 MOL       0.000000
      2 C2          63.0840    53.3650    16.4430 ca         1 MOL       0.000000
      3 C3          61.7880    53.8200    16.2570 ca         1 MOL       0.000000
      4 C4          61.5500    55.1100    16.7620 ca         1 MOL       0.000000
      5 C5          60.3380    55.9420    16.7670 cc         1 MOL       0.000000
      6 C6          60.7050    57.0900    17.3900 cd         1 MOL       0.000000
      7 N1          61.9730    57.0450    17.7540 na         1 MOL       0.000000
      8 C7          62.5520    55.8570    17.3980 ca         1 MOL       0.000000
      9 C8          63.8450    55.3970    17.5810 ca         1 MOL       0.000000
     10 C9          59.7300    58.1840    17.5800 c3         1 MOL       0.000000
     11 N2          58.3390    57.8280    17.3630 n          1 MOL       0.000000
     12 C10         57.4490    58.8150    17.6000 c          1 MOL       0.000000
     13 O1          57.7550    59.9240    17.9590 o          1 MOL       0.000000
     14 C11         56.0230    58.5480    17.4120 c3         1 MOL       0.000000
     15 N3          55.6340    57.3360    16.6920 n          1 MOL       0.000000
     16 C12         56.4960    56.3520    16.4690 c          1 MOL       0.000000
     17 O2          56.2290    55.2970    15.8710 o          1 MOL       0.000000
     18 C13         57.9060    56.4880    16.9500 c3         1 MOL       0.000000
     19 C14         58.9680    55.6530    16.2220 c3         1 MOL       0.000000
     20 C15         54.2730    57.1820    16.2120 c3         1 MOL       0.000000
     21 H1          62.5060    57.8060    18.1920 hn         1 MOL       0.000000
     22 C16         60.2510    59.3250    16.6380 ca         1 MOL       0.000000
     23 C17         60.3710    59.1200    15.2350 ca         1 MOL       0.000000
     24 C18         60.8190    60.0870    14.3620 ca         1 MOL       0.000000
     25 C19         61.1650    61.3020    14.9080 ca         1 MOL       0.000000
     26 O3          61.6310    62.4000    14.2460 os         1 MOL       0.000000
     27 C20         61.0670    61.5410    16.2430 ca         1 MOL       0.000000
     28 C21         62.0920    63.2210    15.3130 c3         1 MOL       0.000000
     29 O4          61.4610    62.8160    16.5640 os         1 MOL       0.000000
     30 C22         60.6110    60.5680    17.1340 ca         1 MOL       0.000000
     31 H2          65.0580    53.6940    17.1860 ha         1 MOL       0.000000
     32 H3          63.3160    52.4230    16.0910 ha         1 MOL       0.000000
     33 H4          61.0600    53.2590    15.7880 ha         1 MOL       0.000000
     34 H5          64.5670    55.9650    18.0520 ha         1 MOL       0.000000
     35 H6          59.6900    58.4850    18.6060 h1         1 MOL       0.000000
     36 H7          55.5800    58.4950    18.3840 h1         1 MOL       0.000000
     37 H8          55.6850    59.3470    16.7860 h1         1 MOL       0.000000
     38 H9          57.8250    55.9810    17.8890 h1         1 MOL       0.000000
     39 H10         58.7490    54.6140    16.3550 hc         1 MOL       0.000000
     40 H11         58.9510    55.9070    15.1830 hc         1 MOL       0.000000
     41 H12         54.1750    56.2400    15.7130 h1         1 MOL       0.000000
     42 H13         54.0440    57.9730    15.5290 h1         1 MOL       0.000000
     43 H14         53.5960    57.2190    17.0400 h1         1 MOL       0.000000
     44 H15         60.1090    58.1990    14.8510 ha         1 MOL       0.000000
     45 H16         60.8920    59.9090    13.3480 ha         1 MOL       0.000000
     46 H17         61.8460    64.2420    15.1060 h2         1 MOL       0.000000
     47 H18         63.1530    63.1140    15.4050 h2         1 MOL       0.000000
     48 H19         60.5430    60.7710    18.1440 ha         1 MOL       0.000000
@<TRIPOS>BOND
     1     1     9 ar  
     2     1    31 1   
     3     2     1 ar  
     4     2    32 1   
     5     3     2 ar  
     6     3     4 ar  
     7     3    33 1   
     8     4     5 1   
     9     4     8 ar  
    10     5     6 2   
    11     6    10 1   
    12     6     7 1   
    13     7    21 1   
    14     8     9 ar  
    15     8     7 1   
    16     9    34 1   
    17    10    35 1   
    18    11    10 1   
    19    11    12 1   
    20    12    13 2   
    21    14    12 1   
    22    14    36 1   
    23    14    37 1   
    24    15    14 1   
    25    16    15 1   
    26    16    18 1   
    27    17    16 2   
    28    18    11 1   
    29    18    38 1   
    30    19     5 1   
    31    19    18 1   
    32    19    39 1   
    33    19    40 1   
    34    20    15 1   
    35    20    41 1   
    36    20    42 1   
    37    20    43 1   
    38    22    30 ar  
    39    22    10 1   
    40    23    22 ar  
    41    23    44 1   
    42    24    25 ar  
    43    24    23 ar  
    44    24    45 1   
    45    25    27 ar  
    46    26    25 1   
    47    26    28 1   
    48    27    29 1   
    49    27    30 ar  
    50    28    29 1   
    51    28    46 1   
    52    28    47 1   
    53    30    48 1   
@<TRIPOS>SUBSTRUCTURE
     1 MOL         1 TEMP              0 ****  ****    0 ROOT
