MODEL 1
REMARK VINA RESULT:      -8.9      0.000      0.000
REMARK  1 active torsions:
REMARK  status: ('A' for Active; 'I' for Inactive)
REMARK    1  A    between atoms: C8_10  and  C15_21 
ROOT
ATOM      1  C   UNL d          52.784  54.335  16.475  0.00  0.00     0.002 A 
ATOM      2  C1  UNL d          53.347  53.158  17.038  0.00  0.00     0.001 A 
ATOM      3  C2  UNL d          54.704  52.921  17.178  0.00  0.00     0.014 A 
ATOM      4  C3  UNL d          55.524  53.962  16.709  0.00  0.00    -0.001 A 
ATOM      5  C4  UNL d          56.987  54.107  16.677  0.00  0.00    -0.018 A 
ATOM      6  C5  UNL d          57.206  55.323  16.115  0.00  0.00     0.045 A 
ATOM      7  N   UNL d          56.065  55.914  15.811  0.00  0.00    -0.356 N 
ATOM      8  C6  UNL d          54.993  55.134  16.151  0.00  0.00     0.043 A 
ATOM      9  C7  UNL d          53.634  55.365  16.014  0.00  0.00     0.030 A 
ATOM     10  C8  UNL d          58.582  55.821  15.919  0.00  0.00     0.172 C 
ATOM     11  N1  UNL d          59.633  54.827  16.055  0.00  0.00    -0.323 N 
ATOM     12  C9  UNL d          60.883  55.276  15.812  0.00  0.00     0.239 C 
ATOM     13  O   UNL d          61.143  56.413  15.509  0.00  0.00    -0.271 OA
ATOM     14  C10 UNL d          62.006  54.345  15.921  0.00  0.00     0.228 C 
ATOM     15  N2  UNL d          61.779  53.057  16.576  0.00  0.00    -0.346 N 
ATOM     16  C11 UNL d          60.554  52.599  16.804  0.00  0.00     0.243 C 
ATOM     17  O1  UNL d          60.293  51.514  17.349  0.00  0.00    -0.271 OA
ATOM     18  C12 UNL d          59.374  53.424  16.397  0.00  0.00     0.185 C 
ATOM     19  C13 UNL d          58.060  53.164  17.145  0.00  0.00     0.076 C 
ATOM     20  C14 UNL d          62.907  52.241  16.984  0.00  0.00     0.153 C 
ATOM     21  H3  UNL d          55.956  56.861  15.427  0.00  0.00     0.166 HD
ENDROOT
BRANCH  10  22
ATOM     22  C15 UNL d          58.701  57.018  16.926  0.00  0.00    -0.027 A 
ATOM     23  C16 UNL d          58.819  56.789  18.325  0.00  0.00     0.012 A 
ATOM     24  C17 UNL d          58.929  57.801  19.253  0.00  0.00     0.040 A 
ATOM     25  C18 UNL d          58.918  59.089  18.769  0.00  0.00     0.105 A 
ATOM     26  O2  UNL d          59.012  60.242  19.493  0.00  0.00    -0.323 OA
ATOM     27  C20 UNL d          58.806  59.354  17.440  0.00  0.00     0.105 A 
ATOM     28  C19 UNL d          58.647  61.228  18.534  0.00  0.00     0.352 C 
ATOM     29  O3  UNL d          58.818  60.702  17.185  0.00  0.00    -0.323 OA
ATOM     30  C21 UNL d          58.697  58.333  16.493  0.00  0.00     0.049 A 
ENDBRANCH  10  22
TORSDOF 1
ENDMDL
MODEL 2
REMARK VINA RESULT:      -8.6      2.690      6.174
REMARK  1 active torsions:
REMARK  status: ('A' for Active; 'I' for Inactive)
REMARK    1  A    between atoms: C8_10  and  C15_21 
ROOT
ATOM      1  C   UNL d          64.116  54.102  17.084  0.00  0.00     0.002 A 
ATOM      2  C1  UNL d          63.084  53.365  16.443  0.00  0.00     0.001 A 
ATOM      3  C2  UNL d          61.788  53.820  16.257  0.00  0.00     0.014 A 
ATOM      4  C3  UNL d          61.550  55.110  16.762  0.00  0.00    -0.001 A 
ATOM      5  C4  UNL d          60.338  55.942  16.767  0.00  0.00    -0.018 A 
ATOM      6  C5  UNL d          60.705  57.090  17.390  0.00  0.00     0.045 A 
ATOM      7  N   UNL d          61.973  57.045  17.754  0.00  0.00    -0.356 N 
ATOM      8  C6  UNL d          62.552  55.857  17.398  0.00  0.00     0.043 A 
ATOM      9  C7  UNL d          63.845  55.397  17.581  0.00  0.00     0.030 A 
ATOM     10  C8  UNL d          59.730  58.184  17.580  0.00  0.00     0.172 C 
ATOM     11  N1  UNL d          58.339  57.828  17.363  0.00  0.00    -0.323 N 
ATOM     12  C9  UNL d          57.449  58.815  17.600  0.00  0.00     0.239 C 
ATOM     13  O   UNL d          57.755  59.924  17.959  0.00  0.00    -0.271 OA
ATOM     14  C10 UNL d          56.023  58.548  17.412  0.00  0.00     0.228 C 
ATOM     15  N2  UNL d          55.634  57.336  16.692  0.00  0.00    -0.346 N 
ATOM     16  C11 UNL d          56.496  56.352  16.469  0.00  0.00     0.243 C 
ATOM     17  O1  UNL d          56.229  55.297  15.871  0.00  0.00    -0.271 OA
ATOM     18  C12 UNL d          57.906  56.488  16.950  0.00  0.00     0.185 C 
ATOM     19  C13 UNL d          58.968  55.653  16.222  0.00  0.00     0.076 C 
ATOM     20  C14 UNL d          54.273  57.182  16.212  0.00  0.00     0.153 C 
ATOM     21  H3  UNL d          62.506  57.806  18.192  0.00  0.00     0.166 HD
ENDROOT
BRANCH  10  22
ATOM     22  C15 UNL d          60.251  59.325  16.638  0.00  0.00    -0.027 A 
ATOM     23  C16 UNL d          60.371  59.120  15.235  0.00  0.00     0.012 A 
ATOM     24  C17 UNL d          60.819  60.087  14.362  0.00  0.00     0.040 A 
ATOM     25  C18 UNL d          61.165  61.302  14.908  0.00  0.00     0.105 A 
ATOM     26  O2  UNL d          61.631  62.400  14.246  0.00  0.00    -0.323 OA
ATOM     27  C20 UNL d          61.067  61.541  16.243  0.00  0.00     0.105 A 
ATOM     28  C19 UNL d          62.092  63.221  15.313  0.00  0.00     0.352 C 
ATOM     29  O3  UNL d          61.461  62.816  16.564  0.00  0.00    -0.323 OA
ATOM     30  C21 UNL d          60.611  60.568  17.134  0.00  0.00     0.049 A 
ENDBRANCH  10  22
TORSDOF 1
ENDMDL
MODEL 3
REMARK VINA RESULT:      -8.5      3.501      6.825
REMARK  1 active torsions:
REMARK  status: ('A' for Active; 'I' for Inactive)
REMARK    1  A    between atoms: C8_10  and  C15_21 
ROOT
ATOM      1  C   UNL d          60.969  64.241  14.717  0.00  0.00     0.002 A 
ATOM      2  C1  UNL d          61.786  63.221  14.159  0.00  0.00     0.001 A 
ATOM      3  C2  UNL d          61.855  61.919  14.628  0.00  0.00     0.014 A 
ATOM      4  C3  UNL d          61.030  61.660  15.737  0.00  0.00    -0.001 A 
ATOM      5  C4  UNL d          60.810  60.434  16.518  0.00  0.00    -0.018 A 
ATOM      6  C5  UNL d          59.904  60.781  17.466  0.00  0.00     0.045 A 
ATOM      7  N   UNL d          59.561  62.051  17.348  0.00  0.00    -0.356 N 
ATOM      8  C6  UNL d          60.214  62.650  16.305  0.00  0.00     0.043 A 
ATOM      9  C7  UNL d          60.150  63.949  15.831  0.00  0.00     0.030 A 
ATOM     10  C8  UNL d          59.431  59.787  18.451  0.00  0.00     0.172 C 
ATOM     11  N1  UNL d          60.216  58.567  18.535  0.00  0.00    -0.323 N 
ATOM     12  C9  UNL d          59.816  57.691  19.481  0.00  0.00     0.239 C 
ATOM     13  O   UNL d          58.876  57.874  20.213  0.00  0.00    -0.271 OA
ATOM     14  C10 UNL d          60.548  56.435  19.643  0.00  0.00     0.228 C 
ATOM     15  N2  UNL d          61.484  56.038  18.590  0.00  0.00    -0.346 N 
ATOM     16  C11 UNL d          61.897  56.896  17.666  0.00  0.00     0.243 C 
ATOM     17  O1  UNL d          62.693  56.626  16.752  0.00  0.00    -0.271 OA
ATOM     18  C12 UNL d          61.383  58.301  17.687  0.00  0.00     0.185 C 
ATOM     19  C13 UNL d          61.415  59.068  16.358  0.00  0.00     0.076 C 
ATOM     20  C14 UNL d          61.993  54.680  18.547  0.00  0.00     0.153 C 
ATOM     21  H3  UNL d          58.853  62.542  17.908  0.00  0.00     0.166 HD
ENDROOT
BRANCH  10  22
ATOM     22  C15 UNL d          57.929  59.554  18.065  0.00  0.00    -0.027 A 
ATOM     23  C16 UNL d          56.906  60.420  18.545  0.00  0.00     0.012 A 
ATOM     24  C17 UNL d          55.573  60.263  18.236  0.00  0.00     0.040 A 
ATOM     25  C18 UNL d          55.246  59.204  17.421  0.00  0.00     0.105 A 
ATOM     26  O2  UNL d          54.001  58.854  16.985  0.00  0.00    -0.323 OA
ATOM     27  C20 UNL d          56.190  58.352  16.941  0.00  0.00     0.105 A 
ATOM     28  C19 UNL d          54.226  57.553  16.451  0.00  0.00     0.352 C 
ATOM     29  O3  UNL d          55.642  57.374  16.149  0.00  0.00    -0.323 OA
ATOM     30  C21 UNL d          57.544  58.505  17.247  0.00  0.00     0.049 A 
ENDBRANCH  10  22
TORSDOF 1
ENDMDL
