@<TRIPOS>MOLECULE
MOL
   55    58     1     0     0
SMALL
No Charge or Current Charge


@<TRIPOS>ATOM
      1 C1           4.8510    -1.7270    60.3720 ca         1 MOL       0.000000
      2 C2           5.9410    -0.8810    60.6290 ca         1 MOL       0.000000
      3 C3           7.0340    -0.8060    59.7190 ca         1 MOL       0.000000
      4 C4           7.0730    -1.5290    58.5280 ca         1 MOL       0.000000
      5 C5           5.9440    -2.4110    58.2610 ca         1 MOL       0.000000
      6 C6           4.8700    -2.5010    59.1880 ca         1 MOL       0.000000
      7 N1           8.2310    -0.1190    59.8710 na         1 MOL       0.000000
      8 C7           8.9860    -0.3900    58.7390 cc         1 MOL       0.000000
      9 C8           8.2640    -1.2530    57.8230 cd         1 MOL       0.000000
     10 C9           5.8810    -3.1930    57.0120 c3         1 MOL       0.000000
     11 C10          8.6320     0.5900    61.0930 c3         1 MOL       0.000000
     12 C11          8.0680     1.9830    61.2110 ca         1 MOL       0.000000
     13 C12          8.0670     2.9430    60.1770 ca         1 MOL       0.000000
     14 C13          7.6870     4.2710    60.4500 ca         1 MOL       0.000000
     15 C14          7.2830     4.6010    61.7590 ca         1 MOL       0.000000
     16 C15          7.2230     3.6060    62.7630 ca         1 MOL       0.000000
     17 C16          7.6180     2.3050    62.4830 ca         1 MOL       0.000000
     18 C17          6.7320     3.8390    64.1100 ce         1 MOL       0.000000
     19 N2           7.1350     2.9660    65.0250 nh         1 MOL       0.000000
     20 H1           6.8270     3.0670    66.0030 hn         1 MOL       0.000000
     21 H2           7.7550     2.1880    64.7570 hn         1 MOL       0.000000
     22 N3           5.9700     4.8870    64.4320 nh         1 MOL       0.000000
     23 H3           5.7160     5.5790    63.7120 hn         1 MOL       0.000000
     24 H4           5.6360     5.0030    65.3990 hn         1 MOL       0.000000
     25 C18         10.3040     0.0860    58.5170 c          1 MOL       0.000000
     26 N4          10.4640     1.3360    58.0180 n          1 MOL       0.000000
     27 H5           9.6410     1.9200    57.8140 hn         1 MOL       0.000000
     28 O1          11.2820    -0.6280    58.7520 o          1 MOL       0.000000
     29 C19         11.8100     1.8520    57.7690 c3         1 MOL       0.000000
     30 C20         12.0150     3.3600    57.9030 ca         1 MOL       0.000000
     31 C21         13.3100     3.8920    57.8090 ca         1 MOL       0.000000
     32 C22         13.5720     5.2510    58.0450 ca         1 MOL       0.000000
     33 C23         12.5000     6.1010    58.3640 ca         1 MOL       0.000000
     34 Cl1         15.2260     5.8440    58.0300 cl         1 MOL       0.000000
     35 C24         11.1890     5.5970    58.4610 ca         1 MOL       0.000000
     36 C25         10.9570     4.2260    58.2170 ca         1 MOL       0.000000
     37 Cl2          9.8470     6.6330    58.9460 cl         1 MOL       0.000000
     38 H6           4.0570    -1.7830    61.0290 ha         1 MOL       0.000000
     39 H7           5.9510    -0.3070    61.4870 ha         1 MOL       0.000000
     40 H8           4.0870    -3.1450    58.9930 ha         1 MOL       0.000000
     41 H9           8.5500    -1.5830    56.8880 ha         1 MOL       0.000000
     42 H10          6.7620    -3.0110    56.4330 hc         1 MOL       0.000000
     43 H11          5.0180    -2.9000    56.4510 hc         1 MOL       0.000000
     44 H12          5.8170    -4.2350    57.2460 hc         1 MOL       0.000000
     45 H13          9.7000     0.6580    61.1070 h1         1 MOL       0.000000
     46 H14          8.2420     0.0290    61.9170 h1         1 MOL       0.000000
     47 H15          8.3450     2.6720    59.2210 ha         1 MOL       0.000000
     48 H16          7.7040     4.9870    59.7070 ha         1 MOL       0.000000
     49 H17          7.0290     5.5750    61.9870 ha         1 MOL       0.000000
     50 H18          7.5770     1.5810    63.2170 ha         1 MOL       0.000000
     51 H19         12.4710     1.3740    58.4620 h1         1 MOL       0.000000
     52 H20         12.0010     1.6380    56.7380 h1         1 MOL       0.000000
     53 H21         14.0920     3.2670    57.5590 ha         1 MOL       0.000000
     54 H22         12.6750     7.1050    58.5290 ha         1 MOL       0.000000
     55 H23          9.9950     3.8560    58.2700 ha         1 MOL       0.000000
@<TRIPOS>BOND
     1     1     2 ar  
     2     1    38 1   
     3     2    39 1   
     4     3     7 1   
     5     3     2 ar  
     6     4     3 ar  
     7     5     4 ar  
     8     5     6 ar  
     9     6     1 ar  
    10     6    40 1   
    11     7    11 1   
    12     8     7 1   
    13     9     4 1   
    14     9     8 2   
    15     9    41 1   
    16    10     5 1   
    17    10    42 1   
    18    10    43 1   
    19    10    44 1   
    20    11    12 1   
    21    11    45 1   
    22    11    46 1   
    23    12    17 ar  
    24    13    14 ar  
    25    13    12 ar  
    26    13    47 1   
    27    14    15 ar  
    28    14    48 1   
    29    15    16 ar  
    30    15    49 1   
    31    16    18 1   
    32    17    16 ar  
    33    17    50 1   
    34    18    22 1   
    35    18    19 2   
    36    19    20 1   
    37    21    19 1   
    38    22    24 1   
    39    23    22 1   
    40    25     8 1   
    41    25    28 2   
    42    26    25 1   
    43    27    26 1   
    44    29    30 1   
    45    29    26 1   
    46    29    51 1   
    47    29    52 1   
    48    30    36 ar  
    49    31    30 ar  
    50    31    32 ar  
    51    31    53 1   
    52    32    33 ar  
    53    33    35 ar  
    54    33    54 1   
    55    34    32 1   
    56    35    37 1   
    57    36    35 ar  
    58    36    55 1   
@<TRIPOS>SUBSTRUCTURE
     1 MOL         1 TEMP              0 ****  ****    0 ROOT
