@<TRIPOS>MOLECULE
MOL
   55    58     1     0     0
SMALL
No Charge or Current Charge


@<TRIPOS>ATOM
      1 C1           6.4620     2.5010    63.9480 ca         1 MOL       0.000000
      2 C2           7.0460     2.6090    62.6770 ca         1 MOL       0.000000
      3 C3           7.2680     3.8850    62.0840 ca         1 MOL       0.000000
      4 C4           6.9540     5.0800    62.7300 ca         1 MOL       0.000000
      5 C5           6.3430     4.9700    64.0490 ca         1 MOL       0.000000
      6 C6           6.1000     3.6920    64.6210 ca         1 MOL       0.000000
      7 N1           7.7220     4.1690    60.8030 na         1 MOL       0.000000
      8 C7           7.7290     5.5510    60.6860 cc         1 MOL       0.000000
      9 C8           7.2900     6.1830    61.9160 cd         1 MOL       0.000000
     10 C9           6.0040     6.1790    64.8220 c3         1 MOL       0.000000
     11 C10          7.9600     3.1580    59.7640 c3         1 MOL       0.000000
     12 C11          9.4000     2.7290    59.6380 ca         1 MOL       0.000000
     13 C12         10.4730     3.5890    59.3210 ca         1 MOL       0.000000
     14 C13         11.7450     3.0540    59.0450 ca         1 MOL       0.000000
     15 C14         11.9210     1.6580    59.1240 ca         1 MOL       0.000000
     16 C15         10.8490     0.8220    59.5140 ca         1 MOL       0.000000
     17 C16          9.5960     1.3620    59.7660 ca         1 MOL       0.000000
     18 C17         10.9670    -0.6130    59.7110 ce         1 MOL       0.000000
     19 N2          10.2160    -1.1220    60.6790 nh         1 MOL       0.000000
     20 H1          10.2460    -2.1320    60.8770 hn         1 MOL       0.000000
     21 H2           9.6020    -0.5060    61.2320 hn         1 MOL       0.000000
     22 N3          11.7360    -1.3880    58.9420 nh         1 MOL       0.000000
     23 H3          12.6330    -1.7430    59.3030 hn         1 MOL       0.000000
     24 H4          11.4320    -1.6300    57.9880 hn         1 MOL       0.000000
     25 C18          8.0870     6.2580    59.5080 c          1 MOL       0.000000
     26 N4           9.2860     6.8880    59.4730 n          1 MOL       0.000000
     27 H5           9.9180     6.8440    60.2850 hn         1 MOL       0.000000
     28 O1           7.3160     6.3150    58.5460 o          1 MOL       0.000000
     29 C19          9.6800     7.6330    58.2760 c3         1 MOL       0.000000
     30 C20         10.6080     6.9280    57.2900 ca         1 MOL       0.000000
     31 C21         10.1830     5.7440    56.6670 ca         1 MOL       0.000000
     32 C22         11.0370     4.9890    55.8470 ca         1 MOL       0.000000
     33 C23         12.3480     5.4480    55.6320 ca         1 MOL       0.000000
     34 Cl1         10.4940     3.4560    55.1850 cl         1 MOL       0.000000
     35 C24         12.8010     6.6350    56.2400 ca         1 MOL       0.000000
     36 C25         11.9190     7.3720    57.0580 ca         1 MOL       0.000000
     37 Cl2         14.4690     7.1760    56.0510 cl         1 MOL       0.000000
     38 H6           6.3010     1.5780    64.3800 ha         1 MOL       0.000000
     39 H7           7.3180     1.7550    62.1660 ha         1 MOL       0.000000
     40 H8           5.6500     3.6310    65.5480 ha         1 MOL       0.000000
     41 H9           7.2370     7.1890    62.1400 ha         1 MOL       0.000000
     42 H10          6.2490     7.0490    64.2490 hc         1 MOL       0.000000
     43 H11          6.5600     6.1860    65.7360 hc         1 MOL       0.000000
     44 H12          4.9570     6.1800    65.0420 hc         1 MOL       0.000000
     45 H13          7.3720     2.2950    59.9950 h1         1 MOL       0.000000
     46 H14          7.6900     3.6060    58.8310 h1         1 MOL       0.000000
     47 H15         10.3250     4.6100    59.2920 ha         1 MOL       0.000000
     48 H16         12.5320     3.6710    58.7900 ha         1 MOL       0.000000
     49 H17         12.8380     1.2430    58.8960 ha         1 MOL       0.000000
     50 H18          8.8140     0.7500    60.0470 ha         1 MOL       0.000000
     51 H19          8.7860     7.8910    57.7480 h1         1 MOL       0.000000
     52 H20         10.2460     8.4640    58.6420 h1         1 MOL       0.000000
     53 H21          9.2150     5.4190    56.8160 ha         1 MOL       0.000000
     54 H22         12.9850     4.9100    55.0230 ha         1 MOL       0.000000
     55 H23         12.2430     8.2510    57.4920 ha         1 MOL       0.000000
@<TRIPOS>BOND
     1     1     6 ar  
     2     1    38 1   
     3     2     1 ar  
     4     2    39 1   
     5     3     2 ar  
     6     3     4 ar  
     7     4     5 ar  
     8     5     6 ar  
     9     5    10 1   
    10     6    40 1   
    11     7     3 1   
    12     8     7 1   
    13     8     9 2   
    14     9     4 1   
    15     9    41 1   
    16    10    42 1   
    17    10    43 1   
    18    10    44 1   
    19    11     7 1   
    20    11    45 1   
    21    11    46 1   
    22    12    11 1   
    23    12    17 ar  
    24    13    12 ar  
    25    13    47 1   
    26    14    15 ar  
    27    14    13 ar  
    28    14    48 1   
    29    15    16 ar  
    30    15    49 1   
    31    16    18 1   
    32    16    17 ar  
    33    17    50 1   
    34    18    19 2   
    35    19    20 1   
    36    19    21 1   
    37    22    23 1   
    38    22    18 1   
    39    24    22 1   
    40    25     8 1   
    41    26    25 1   
    42    26    27 1   
    43    28    25 2   
    44    29    26 1   
    45    29    51 1   
    46    29    52 1   
    47    30    29 1   
    48    31    30 ar  
    49    31    53 1   
    50    32    31 ar  
    51    33    32 ar  
    52    33    35 ar  
    53    33    54 1   
    54    34    32 1   
    55    35    36 ar  
    56    36    30 ar  
    57    36    55 1   
    58    37    35 1   
@<TRIPOS>SUBSTRUCTURE
     1 MOL         1 TEMP              0 ****  ****    0 ROOT
