@<TRIPOS>MOLECULE
MOL
   55    58     1     0     0
SMALL
No Charge or Current Charge


@<TRIPOS>ATOM
      1 C1           7.3520     6.0200    61.8810 ca         1 MOL       0.000000
      2 C2           7.5340     5.0220    60.9120 ca         1 MOL       0.000000
      3 C3           7.3420     3.6480    61.2380 ca         1 MOL       0.000000
      4 C4           6.9430     3.2230    62.5030 ca         1 MOL       0.000000
      5 C5           6.7570     4.2590    63.5120 ca         1 MOL       0.000000
      6 C6           6.9770     5.6250    63.1860 ca         1 MOL       0.000000
      7 N1           7.5890     2.5360    60.4440 na         1 MOL       0.000000
      8 C7           7.2900     1.4260    61.2200 cc         1 MOL       0.000000
      9 C8           6.8230     1.8180    62.5360 cd         1 MOL       0.000000
     10 C9           6.3050     3.9100    64.8720 c3         1 MOL       0.000000
     11 C10          8.2140     2.5860    59.1150 c3         1 MOL       0.000000
     12 C11          9.7220     2.5730    59.1430 ca         1 MOL       0.000000
     13 C12         10.5390     3.7230    59.1190 ca         1 MOL       0.000000
     14 C13         11.9320     3.5930    58.9580 ca         1 MOL       0.000000
     15 C14         12.4800     2.2990    58.8550 ca         1 MOL       0.000000
     16 C15         11.6500     1.1580    58.9540 ca         1 MOL       0.000000
     17 C16         10.2770     1.3030    59.0950 ca         1 MOL       0.000000
     18 C17         12.1420    -0.2080    58.9510 ce         1 MOL       0.000000
     19 N2          13.4620    -0.3410    58.9130 nh         1 MOL       0.000000
     20 H1          13.8850    -1.2800    58.9090 hn         1 MOL       0.000000
     21 H2          14.0630     0.4960    58.8880 hn         1 MOL       0.000000
     22 N3          11.3360    -1.2690    59.0340 nh         1 MOL       0.000000
     23 H3          10.9800    -1.5740    59.9520 hn         1 MOL       0.000000
     24 H4          11.0700    -1.7820    58.1820 hn         1 MOL       0.000000
     25 C18          7.4500     0.0810    60.7970 c          1 MOL       0.000000
     26 N4           6.3480    -0.6140    60.4230 n          1 MOL       0.000000
     27 H5           5.4210    -0.1640    60.4430 hn         1 MOL       0.000000
     28 O1           8.5630    -0.4520    60.7890 o          1 MOL       0.000000
     29 C19          6.4780    -2.0060    59.9900 c3         1 MOL       0.000000
     30 C20          6.4740    -2.2710    58.4860 ca         1 MOL       0.000000
     31 C21          5.4150    -2.9960    57.9160 ca         1 MOL       0.000000
     32 C22          5.4190    -3.3740    56.5640 ca         1 MOL       0.000000
     33 C23          6.5070    -2.9960    55.7590 ca         1 MOL       0.000000
     34 Cl1          4.1280    -4.3800    55.9270 cl         1 MOL       0.000000
     35 C24          7.5810    -2.2640    56.3010 ca         1 MOL       0.000000
     36 C25          7.5470    -1.8980    57.6640 ca         1 MOL       0.000000
     37 Cl2          8.9920    -1.8580    55.3260 cl         1 MOL       0.000000
     38 H6           7.4880     7.0160    61.6480 ha         1 MOL       0.000000
     39 H7           7.8100     5.2860    59.9530 ha         1 MOL       0.000000
     40 H8           6.8610     6.3440    63.9170 ha         1 MOL       0.000000
     41 H9           6.4870     1.2180    63.3050 ha         1 MOL       0.000000
     42 H10          6.1890     2.8490    64.9480 hc         1 MOL       0.000000
     43 H11          5.3670     4.3860    65.0700 hc         1 MOL       0.000000
     44 H12          7.0310     4.2420    65.5850 hc         1 MOL       0.000000
     45 H13          7.8810     1.7370    58.5550 h1         1 MOL       0.000000
     46 H14          7.9210     3.5150    58.6710 h1         1 MOL       0.000000
     47 H15         10.1160     4.6590    59.2190 ha         1 MOL       0.000000
     48 H16         12.5380     4.4270    58.9160 ha         1 MOL       0.000000
     49 H17         13.4950     2.1830    58.7060 ha         1 MOL       0.000000
     50 H18          9.6720     0.4700    59.1640 ha         1 MOL       0.000000
     51 H19          7.4010    -2.3800    60.3800 h1         1 MOL       0.000000
     52 H20          5.6000    -2.4930    60.3590 h1         1 MOL       0.000000
     53 H21          4.6110    -3.2580    58.5080 ha         1 MOL       0.000000
     54 H22          6.5190    -3.2570    54.7610 ha         1 MOL       0.000000
     55 H23          8.3240    -1.3470    58.0620 ha         1 MOL       0.000000
@<TRIPOS>BOND
     1     1     6 ar  
     2     1    38 1   
     3     2     3 ar  
     4     2     1 ar  
     5     2    39 1   
     6     3     4 ar  
     7     4     9 1   
     8     4     5 ar  
     9     5    10 1   
    10     6     5 ar  
    11     6    40 1   
    12     7     8 1   
    13     7     3 1   
    14     8     9 2   
    15     9    41 1   
    16    10    42 1   
    17    10    43 1   
    18    10    44 1   
    19    11    12 1   
    20    11     7 1   
    21    11    45 1   
    22    11    46 1   
    23    13    12 ar  
    24    13    47 1   
    25    14    13 ar  
    26    14    48 1   
    27    15    16 ar  
    28    15    14 ar  
    29    15    49 1   
    30    16    17 ar  
    31    17    12 ar  
    32    17    50 1   
    33    18    16 1   
    34    18    22 1   
    35    19    18 2   
    36    20    19 1   
    37    21    19 1   
    38    22    23 1   
    39    24    22 1   
    40    25     8 1   
    41    26    27 1   
    42    26    25 1   
    43    28    25 2   
    44    29    26 1   
    45    29    51 1   
    46    29    52 1   
    47    30    29 1   
    48    31    30 ar  
    49    31    53 1   
    50    32    31 ar  
    51    33    35 ar  
    52    33    32 ar  
    53    33    54 1   
    54    34    32 1   
    55    35    36 ar  
    56    36    30 ar  
    57    36    55 1   
    58    37    35 1   
@<TRIPOS>SUBSTRUCTURE
     1 MOL         1 TEMP              0 ****  ****    0 ROOT
