@<TRIPOS>MOLECULE
MOL
   44    44     1     0     0
SMALL
No Charge or Current Charge


@<TRIPOS>ATOM
      1 O1          21.0400   127.3360    -2.9770 o          1 MOL       0.000000
      2 C1          20.9600   128.5000    -3.2910 c          1 MOL       0.000000
      3 N1          21.7540   129.6120    -2.9870 n          1 MOL       0.000000
      4 C2          22.6600   129.8730    -1.9070 c1         1 MOL       0.000000
      5 H1          22.5700   129.0780    -1.1490 ha         1 MOL       0.000000
      6 C3          22.1350   131.2050    -1.3260 c3         1 MOL       0.000000
      7 C4          22.8760   132.4700    -1.8390 c3         1 MOL       0.000000
      8 C5          22.2020   131.2610     0.2150 c3         1 MOL       0.000000
      9 S1          20.3790   131.2600    -1.8310 s4         1 MOL       0.000000
     10 C6          20.7250   130.5230    -3.4480 cy         1 MOL       0.000000
     11 C7          19.9470   129.3340    -4.0430 cy         1 MOL       0.000000
     12 O2          19.5950   130.1740    -1.1960 o          1 MOL       0.000000
     13 N2          18.6010   129.0740    -3.6180 n          1 MOL       0.000000
     14 C8          17.8840   128.0020    -4.0330 c          1 MOL       0.000000
     15 O3          18.1810   127.1090    -4.8230 o          1 MOL       0.000000
     16 H2          18.2640   129.7350    -2.9240 hn         1 MOL       0.000000
     17 C9          16.4790   127.9370    -3.4340 c3         1 MOL       0.000000
     18 C10         15.4580   128.3450    -4.4890 ca         1 MOL       0.000000
     19 C11         15.5250   129.5620    -5.1520 ca         1 MOL       0.000000
     20 C12         14.6410   129.8380    -6.2010 ca         1 MOL       0.000000
     21 C13         13.6300   128.9200    -6.5240 ca         1 MOL       0.000000
     22 C14         13.5250   127.7050    -5.8390 ca         1 MOL       0.000000
     23 C15         14.4630   127.4320    -4.8440 ca         1 MOL       0.000000
     24 C16         24.1300   129.9240    -2.3480 c          1 MOL       0.000000
     25 O4          25.0630   129.9780    -1.6090 o          1 MOL       0.000000
     26 O5          24.1930   129.8580    -3.7090 oh         1 MOL       0.000000
     27 H3          22.5790   130.3160    -1.7220 h1         1 MOL       0.000000
     28 H4          22.4140   133.3440    -1.4300 hc         1 MOL       0.000000
     29 H5          22.8240   132.5050    -2.9070 hc         1 MOL       0.000000
     30 H6          23.9010   132.4320    -1.5330 hc         1 MOL       0.000000
     31 H7          21.7460   132.1660     0.5590 hc         1 MOL       0.000000
     32 H8          23.2250   131.2350     0.5290 hc         1 MOL       0.000000
     33 H9          21.6820   130.4210     0.6250 hc         1 MOL       0.000000
     34 H10         20.7140   131.3460    -4.1320 h2         1 MOL       0.000000
     35 H11         19.7360   129.2990    -5.0910 h1         1 MOL       0.000000
     36 H12         16.2760   126.9380    -3.1080 hc         1 MOL       0.000000
     37 H13         16.4160   128.6040    -2.5990 hc         1 MOL       0.000000
     38 H14         16.2270   130.2640    -4.8710 ha         1 MOL       0.000000
     39 H15         14.7320   130.7150    -6.7360 ha         1 MOL       0.000000
     40 H16         12.9570   129.1430    -7.2740 ha         1 MOL       0.000000
     41 H17         12.7760   127.0310    -6.0630 ha         1 MOL       0.000000
     42 H18         14.4200   126.5250    -4.3540 ha         1 MOL       0.000000
     43 H19         23.1910   129.9280    -1.9200 h5         1 MOL       0.000000
     44 H20         23.4040   129.8180    -4.2130 ho         1 MOL       0.000000
@<TRIPOS>BOND
     1     2     3 1   
     2     2     1 2   
     3     3     4 3   
     4     4     5 1   
     5     6     8 1   
     6     6    27 1   
     7     7     6 1   
     8     7    28 1   
     9     7    29 1   
    10     7    30 1   
    11     8    31 1   
    12     8    32 1   
    13     8    33 1   
    14     9     6 1   
    15     9    12 2   
    16    10    11 1   
    17    10     3 1   
    18    10     9 1   
    19    10    34 1   
    20    11    13 1   
    21    11     2 1   
    22    11    35 1   
    23    13    16 1   
    24    14    13 1   
    25    14    17 1   
    26    15    14 2   
    27    17    36 1   
    28    17    37 1   
    29    18    17 1   
    30    19    18 ar  
    31    19    38 1   
    32    20    19 ar  
    33    20    39 1   
    34    21    20 ar  
    35    21    22 ar  
    36    21    40 1   
    37    22    23 ar  
    38    22    41 1   
    39    23    18 ar  
    40    23    42 1   
    41    24    25 2   
    42    24    43 1   
    43    26    24 1   
    44    26    44 1   
@<TRIPOS>SUBSTRUCTURE
     1 MOL         1 TEMP              0 ****  ****    0 ROOT
