@<TRIPOS>MOLECULE
MOL
   44    44     1     0     0
SMALL
No Charge or Current Charge


@<TRIPOS>ATOM
      1 O1          19.2020   132.0320    -3.3350 o          1 MOL       0.000000
      2 C1          19.8180   131.3170    -2.5800 c          1 MOL       0.000000
      3 N1          21.1760   131.2430    -2.2530 n          1 MOL       0.000000
      4 C2          22.3530   131.6630    -2.9560 c1         1 MOL       0.000000
      5 H1          22.0830   131.9650    -3.9810 ha         1 MOL       0.000000
      6 C3          23.2080   130.3770    -3.0030 c3         1 MOL       0.000000
      7 C4          24.2880   130.2780    -1.8910 c3         1 MOL       0.000000
      8 C5          23.9500   130.1930    -4.3430 c3         1 MOL       0.000000
      9 S1          21.9970   129.0190    -2.8220 s4         1 MOL       0.000000
     10 C6          20.9970   129.9470    -1.6300 cy         1 MOL       0.000000
     11 C7          19.4690   130.1170    -1.7280 cy         1 MOL       0.000000
     12 O2          21.0670   128.9620    -3.9740 o          1 MOL       0.000000
     13 N2          18.6850   129.1490    -2.4400 n          1 MOL       0.000000
     14 C8          17.3370   129.0640    -2.3370 c          1 MOL       0.000000
     15 O3          16.5530   129.7120    -1.6470 o          1 MOL       0.000000
     16 H2          19.2320   128.5800    -3.0800 hn         1 MOL       0.000000
     17 C9          16.7260   127.9600    -3.2000 c3         1 MOL       0.000000
     18 C10         15.8470   128.5850    -4.2770 ca         1 MOL       0.000000
     19 C11         16.1340   129.8180    -4.8430 ca         1 MOL       0.000000
     20 C12         15.3710   130.2910    -5.9150 ca         1 MOL       0.000000
     21 C13         14.2610   129.5590    -6.3620 ca         1 MOL       0.000000
     22 C14         13.9350   128.3310    -5.7760 ca         1 MOL       0.000000
     23 C15         14.7560   127.8550    -4.7540 ca         1 MOL       0.000000
     24 C16         23.0600   132.8550    -2.2960 c          1 MOL       0.000000
     25 O4          23.9390   133.4890    -2.7940 o          1 MOL       0.000000
     26 O5          22.4980   133.0930    -1.0760 oh         1 MOL       0.000000
     27 H3          22.6890   131.3110    -2.9490 h1         1 MOL       0.000000
     28 H4          24.7920   129.3370    -1.9660 hc         1 MOL       0.000000
     29 H5          23.8200   130.3570    -0.9320 hc         1 MOL       0.000000
     30 H6          24.9960   131.0720    -2.0090 hc         1 MOL       0.000000
     31 H7          24.4510   129.2470    -4.3470 hc         1 MOL       0.000000
     32 H8          24.6680   130.9770    -4.4640 hc         1 MOL       0.000000
     33 H9          23.2460   130.2270    -5.1480 hc         1 MOL       0.000000
     34 H10         21.2590   129.5390    -0.6760 h2         1 MOL       0.000000
     35 H11         18.8680   130.1100    -0.8430 h1         1 MOL       0.000000
     36 H12         17.5080   127.3940    -3.6620 hc         1 MOL       0.000000
     37 H13         16.1330   127.3140    -2.5860 hc         1 MOL       0.000000
     38 H14         16.9110   130.3870    -4.4730 ha         1 MOL       0.000000
     39 H15         15.6240   131.1780    -6.3770 ha         1 MOL       0.000000
     40 H16         13.6800   129.9290    -7.1300 ha         1 MOL       0.000000
     41 H17         13.1120   127.7940    -6.0900 ha         1 MOL       0.000000
     42 H18         14.5510   126.9340    -4.3370 ha         1 MOL       0.000000
     43 H19         22.6920   132.0560    -2.8360 h5         1 MOL       0.000000
     44 H20         21.8090   132.5410    -0.7620 ho         1 MOL       0.000000
@<TRIPOS>BOND
     1     1     2 2   
     2     2     3 1   
     3     2    11 1   
     4     3    10 1   
     5     4     3 3   
     6     5     4 1   
     7     6     9 1   
     8     6     7 1   
     9     6    27 1   
    10     7    28 1   
    11     7    29 1   
    12     7    30 1   
    13     8     6 1   
    14     8    31 1   
    15     8    32 1   
    16     8    33 1   
    17     9    12 2   
    18     9    10 1   
    19    10    11 1   
    20    10    34 1   
    21    11    35 1   
    22    13    14 1   
    23    13    11 1   
    24    14    15 2   
    25    16    13 1   
    26    17    14 1   
    27    17    36 1   
    28    17    37 1   
    29    18    17 1   
    30    19    18 ar  
    31    19    38 1   
    32    20    19 ar  
    33    20    39 1   
    34    21    20 ar  
    35    21    22 ar  
    36    21    40 1   
    37    22    23 ar  
    38    22    41 1   
    39    23    18 ar  
    40    23    42 1   
    41    24    26 1   
    42    24    43 1   
    43    25    24 2   
    44    26    44 1   
@<TRIPOS>SUBSTRUCTURE
     1 MOL         1 TEMP              0 ****  ****    0 ROOT
