@<TRIPOS>MOLECULE
MOL
   54    58     1     0     0
SMALL
No Charge or Current Charge


@<TRIPOS>ATOM
      1 O1          79.8050    74.5810   101.8500 o          1 MOL       0.000000
      2 C1          78.9460    73.7830   101.5210 c          1 MOL       0.000000
      3 N1          77.7900    73.5530   102.2990 n          1 MOL       0.000000
      4 C2          76.8680    72.7290   101.5920 c          1 MOL       0.000000
      5 O2          75.7880    72.3550   102.0220 o          1 MOL       0.000000
      6 C3          77.4250    72.4200   100.2770 c3         1 MOL       0.000000
      7 C4          76.8910    73.2600    99.1180 c3         1 MOL       0.000000
      8 N2          77.7730    74.4600    98.7390 n3         1 MOL       0.000000
      9 C5          77.5220    74.5520    97.2720 c3         1 MOL       0.000000
     10 C6          76.1080    73.9160    97.0710 c3         1 MOL       0.000000
     11 C7          76.1490    72.6820    97.9830 c3         1 MOL       0.000000
     12 C8          79.0970    73.7470    99.0030 c3         1 MOL       0.000000
     13 C9          78.8880    72.9680   100.2880 c3         1 MOL       0.000000
     14 C10         80.3400    74.5670    98.8350 ca         1 MOL       0.000000
     15 C11         81.5390    73.8940    98.6210 ca         1 MOL       0.000000
     16 C12         82.7080    74.6100    98.3990 ca         1 MOL       0.000000
     17 C13         82.6520    76.0310    98.4010 ca         1 MOL       0.000000
     18 C14         81.4480    76.7130    98.6110 ca         1 MOL       0.000000
     19 C15         80.2760    75.9820    98.8290 ca         1 MOL       0.000000
     20 C16         83.8900    76.7610    98.1820 ce         1 MOL       0.000000
     21 N3          84.8660    76.8510    99.1210 nh         1 MOL       0.000000
     22 H1          85.7260    77.3790    98.9200 hn         1 MOL       0.000000
     23 H2          84.7440    76.3900   100.0340 hn         1 MOL       0.000000
     24 N4          84.1400    77.4080    97.0140 nh         1 MOL       0.000000
     25 H3          83.5090    77.2820    96.2100 hn         1 MOL       0.000000
     26 H4          84.9610    78.0250    96.9320 hn         1 MOL       0.000000
     27 C17         77.5450    74.3040   103.5310 c3         1 MOL       0.000000
     28 C18         76.4190    75.2800   103.3250 ca         1 MOL       0.000000
     29 C19         75.2660    75.1710   104.1250 ca         1 MOL       0.000000
     30 C20         74.2340    76.0940   103.9620 ca         1 MOL       0.000000
     31 C21         74.3880    77.0990   102.9970 ca         1 MOL       0.000000
     32 F1          73.3670    77.9690   102.9040 f          1 MOL       0.000000
     33 C22         75.5080    77.2430   102.1660 ca         1 MOL       0.000000
     34 C23         76.5470    76.2950   102.3460 ca         1 MOL       0.000000
     35 H5          77.2320    71.3770   100.1380 hc         1 MOL       0.000000
     36 H6          76.0240    73.5920    99.6500 h1         1 MOL       0.000000
     37 H7          77.5260    75.5730    96.9520 h1         1 MOL       0.000000
     38 H8          78.2760    74.0520    96.7000 h1         1 MOL       0.000000
     39 H9          75.9550    73.6340    96.0500 hc         1 MOL       0.000000
     40 H10         75.3080    74.5860    97.3060 hc         1 MOL       0.000000
     41 H11         76.6760    71.8670    97.5320 hc         1 MOL       0.000000
     42 H12         75.1980    72.2550    98.2240 hc         1 MOL       0.000000
     43 H13         79.3400    73.0540    98.2250 h1         1 MOL       0.000000
     44 H14         79.6680    72.2350   100.3090 hc         1 MOL       0.000000
     45 H15         81.5590    72.8620    98.6270 ha         1 MOL       0.000000
     46 H16         83.6010    74.1200    98.2360 ha         1 MOL       0.000000
     47 H17         81.4250    77.7450    98.6050 ha         1 MOL       0.000000
     48 H18         79.3780    76.4660    98.9830 ha         1 MOL       0.000000
     49 H19         78.4310    74.8380   103.8020 h1         1 MOL       0.000000
     50 H20         77.2790    73.6210   104.3110 h1         1 MOL       0.000000
     51 H21         75.1860    74.4160   104.8240 ha         1 MOL       0.000000
     52 H22         73.3790    76.0390   104.5370 ha         1 MOL       0.000000
     53 H23         75.5730    77.9960   101.4630 ha         1 MOL       0.000000
     54 H24         77.3970    76.3450   101.7630 ha         1 MOL       0.000000
@<TRIPOS>BOND
     1     2     1 2   
     2     2     3 1   
     3     3    27 1   
     4     4     5 2   
     5     4     3 1   
     6     6     7 1   
     7     6     4 1   
     8     6    35 1   
     9     7     8 1   
    10     7    36 1   
    11     8    12 1   
    12     9     8 1   
    13     9    37 1   
    14     9    38 1   
    15    10     9 1   
    16    10    11 1   
    17    10    39 1   
    18    10    40 1   
    19    11     7 1   
    20    11    41 1   
    21    11    42 1   
    22    12    13 1   
    23    12    43 1   
    24    13     6 1   
    25    13     2 1   
    26    13    44 1   
    27    14    12 1   
    28    15    14 ar  
    29    15    45 1   
    30    16    17 ar  
    31    16    15 ar  
    32    16    46 1   
    33    17    18 ar  
    34    18    19 ar  
    35    18    47 1   
    36    19    14 ar  
    37    19    48 1   
    38    20    17 1   
    39    20    21 2   
    40    21    23 1   
    41    22    21 1   
    42    24    20 1   
    43    25    24 1   
    44    26    24 1   
    45    27    49 1   
    46    27    50 1   
    47    28    27 1   
    48    28    29 ar  
    49    29    51 1   
    50    30    29 ar  
    51    30    52 1   
    52    31    30 ar  
    53    32    31 1   
    54    33    34 ar  
    55    33    31 ar  
    56    33    53 1   
    57    34    28 ar  
    58    34    54 1   
@<TRIPOS>SUBSTRUCTURE
     1 MOL         1 TEMP              0 ****  ****    0 ROOT
