@<TRIPOS>MOLECULE
MOL
   54    58     1     0     0
SMALL
No Charge or Current Charge


@<TRIPOS>ATOM
      1 O1          81.0880    74.9790   102.3940 o          1 MOL       0.000000
      2 C1          80.1090    74.2560   102.3480 c          1 MOL       0.000000
      3 N1          79.1950    74.1530   103.4200 n          1 MOL       0.000000
      4 C2          78.0500    73.3990   103.0280 c          1 MOL       0.000000
      5 O2          77.1020    73.1370   103.7520 o          1 MOL       0.000000
      6 C3          78.2000    73.0090   101.6290 c3         1 MOL       0.000000
      7 C4          77.4410    73.8660   100.6170 c3         1 MOL       0.000000
      8 N2          78.2810    74.9700    99.9570 n3         1 MOL       0.000000
      9 C5          77.6470    75.0480    98.6090 c3         1 MOL       0.000000
     10 C6          76.1850    74.5410    98.8280 c3         1 MOL       0.000000
     11 C7          76.3720    73.3300    99.7540 c3         1 MOL       0.000000
     12 C8          79.5630    74.1440    99.8880 c3         1 MOL       0.000000
     13 C9          79.6500    73.4200   101.2180 c3         1 MOL       0.000000
     14 C10         80.7770    74.8430    99.3510 ca         1 MOL       0.000000
     15 C11         80.7170    76.2250    99.1990 ca         1 MOL       0.000000
     16 C12         81.8340    76.9240    98.7630 ca         1 MOL       0.000000
     17 C13         83.0260    76.2020    98.4740 ca         1 MOL       0.000000
     18 C14         83.0920    74.8130    98.6300 ca         1 MOL       0.000000
     19 C15         81.9620    74.1180    99.0730 ca         1 MOL       0.000000
     20 C16         84.1790    76.9520    98.0050 ce         1 MOL       0.000000
     21 N3          84.2790    77.4290    96.7370 nh         1 MOL       0.000000
     22 H1          85.1160    77.9550    96.4500 hn         1 MOL       0.000000
     23 H2          83.5170    77.2620    96.0640 hn         1 MOL       0.000000
     24 N4          85.2370    77.2160    98.8140 nh         1 MOL       0.000000
     25 H3          85.8590    76.4520    99.1140 hn         1 MOL       0.000000
     26 H4          85.4170    78.1800    99.1290 hn         1 MOL       0.000000
     27 C17         79.3580    74.9520   104.6340 c3         1 MOL       0.000000
     28 C18         80.5640    74.4860   105.4010 ca         1 MOL       0.000000
     29 C19         80.6620    73.1280   105.7610 ca         1 MOL       0.000000
     30 C20         81.7950    72.6840   106.4430 ca         1 MOL       0.000000
     31 C21         82.7950    73.6170   106.7470 ca         1 MOL       0.000000
     32 F1          83.8690    73.1210   107.3860 f          1 MOL       0.000000
     33 C22         82.7410    74.9800   106.4240 ca         1 MOL       0.000000
     34 C23         81.5820    75.4140   105.7320 ca         1 MOL       0.000000
     35 H5          77.8910    71.9850   101.5980 hc         1 MOL       0.000000
     36 H6          76.7820    74.2910   101.3450 h1         1 MOL       0.000000
     37 H7          77.6470    76.0560    98.2500 h1         1 MOL       0.000000
     38 H8          78.1720    74.4660    97.8800 h1         1 MOL       0.000000
     39 H9          75.7360    74.2500    97.9010 hc         1 MOL       0.000000
     40 H10         75.5370    75.2880    99.2370 hc         1 MOL       0.000000
     41 H11         76.6870    72.4590    99.2180 hc         1 MOL       0.000000
     42 H12         75.4910    72.9980   100.2630 hc         1 MOL       0.000000
     43 H13         79.5260    73.4120    99.1080 h1         1 MOL       0.000000
     44 H14         80.3430    72.6200   101.0640 hc         1 MOL       0.000000
     45 H15         79.8420    76.7300    99.4100 ha         1 MOL       0.000000
     46 H16         81.8010    77.9490    98.6500 ha         1 MOL       0.000000
     47 H17         83.9660    74.3060    98.4200 ha         1 MOL       0.000000
     48 H18         81.9910    73.0940    99.1950 ha         1 MOL       0.000000
     49 H19         78.4870    74.8470   105.2460 h1         1 MOL       0.000000
     50 H20         79.4910    75.9780   104.3620 h1         1 MOL       0.000000
     51 H21         79.9040    72.4690   105.5230 ha         1 MOL       0.000000
     52 H22         81.8940    71.6940   106.7170 ha         1 MOL       0.000000
     53 H23         83.5020    75.6310   106.6760 ha         1 MOL       0.000000
     54 H24         81.4800    76.4070   105.4690 ha         1 MOL       0.000000
@<TRIPOS>BOND
     1     2     1 2   
     2     2     3 1   
     3     3    27 1   
     4     4     3 1   
     5     4     5 2   
     6     6     7 1   
     7     6     4 1   
     8     6    35 1   
     9     7     8 1   
    10     7    36 1   
    11     8    12 1   
    12     9    10 1   
    13     9     8 1   
    14     9    37 1   
    15     9    38 1   
    16    10    11 1   
    17    10    39 1   
    18    10    40 1   
    19    11     7 1   
    20    11    41 1   
    21    11    42 1   
    22    12    13 1   
    23    12    43 1   
    24    13     6 1   
    25    13     2 1   
    26    13    44 1   
    27    14    12 1   
    28    15    14 ar  
    29    15    45 1   
    30    16    15 ar  
    31    16    46 1   
    32    17    18 ar  
    33    17    16 ar  
    34    18    19 ar  
    35    18    47 1   
    36    19    14 ar  
    37    19    48 1   
    38    20    17 1   
    39    20    24 1   
    40    21    20 2   
    41    22    21 1   
    42    23    21 1   
    43    24    25 1   
    44    24    26 1   
    45    27    28 1   
    46    27    49 1   
    47    27    50 1   
    48    28    34 ar  
    49    28    29 ar  
    50    29    30 ar  
    51    29    51 1   
    52    30    31 ar  
    53    30    52 1   
    54    31    32 1   
    55    33    31 ar  
    56    33    53 1   
    57    34    33 ar  
    58    34    54 1   
@<TRIPOS>SUBSTRUCTURE
     1 MOL         1 TEMP              0 ****  ****    0 ROOT
