@<TRIPOS>MOLECULE
MOL
   51    53     1     0     0
SMALL
No Charge or Current Charge


@<TRIPOS>ATOM
      1 C1          40.4060    32.0110    45.3180 cc         1 MOL       0.000000
      2 N1          39.8370    33.2440    45.7190 n          1 MOL       0.000000
      3 C2          40.2960    33.9300    46.8670 c          1 MOL       0.000000
      4 O1          39.8590    35.0200    47.2320 o          1 MOL       0.000000
      5 N2          41.3200    33.3210    47.5700 n          1 MOL       0.000000
      6 H1          41.6580    33.8110    48.4100 hn         1 MOL       0.000000
      7 C3          41.9410    32.1160    47.2580 c          1 MOL       0.000000
      8 O2          42.8400    31.6880    47.9800 o          1 MOL       0.000000
      9 C4          41.4620    31.4370    46.0700 cd         1 MOL       0.000000
     10 C5          38.7740    33.9260    44.9180 c3         1 MOL       0.000000
     11 O3          39.3300    34.9930    44.1700 os         1 MOL       0.000000
     12 C6          38.9350    34.9500    42.8080 c3         1 MOL       0.000000
     13 C7          39.8660    34.0910    42.0110 ca         1 MOL       0.000000
     14 C8          41.2420    34.0680    42.3120 ca         1 MOL       0.000000
     15 C9          42.1000    33.1750    41.6420 ca         1 MOL       0.000000
     16 C10         41.5740    32.3020    40.6650 ca         1 MOL       0.000000
     17 C11         40.1910    32.3340    40.3630 ca         1 MOL       0.000000
     18 C12         39.3420    33.2330    41.0400 ca         1 MOL       0.000000
     19 C13         39.8570    31.3730    44.0290 c3         1 MOL       0.000000
     20 C14         38.8010    30.2800    44.0860 ca         1 MOL       0.000000
     21 C15         37.5470    30.5770    44.6430 ca         1 MOL       0.000000
     22 C16         36.5120    29.6060    44.6130 ca         1 MOL       0.000000
     23 C17         36.7470    28.3330    44.0230 ca         1 MOL       0.000000
     24 C18         38.0090    28.0370    43.4700 ca         1 MOL       0.000000
     25 C19         39.0330    29.0140    43.5060 ca         1 MOL       0.000000
     26 C20         42.2710    30.1760    45.7060 c3         1 MOL       0.000000
     27 C21         43.0730    30.2760    44.3940 c3         1 MOL       0.000000
     28 C22         41.5320    28.8730    45.9290 c3         1 MOL       0.000000
     29 H2          38.3290    33.2200    44.2480 h2         1 MOL       0.000000
     30 H3          38.0330    34.3170    45.5840 h2         1 MOL       0.000000
     31 H4          37.9450    34.5490    42.7420 h1         1 MOL       0.000000
     32 H5          38.9620    35.9440    42.4120 h1         1 MOL       0.000000
     33 H6          41.6230    34.7080    43.0260 ha         1 MOL       0.000000
     34 H7          43.1080    33.1590    41.8640 ha         1 MOL       0.000000
     35 H8          42.1960    31.6420    40.1720 ha         1 MOL       0.000000
     36 H9          39.8040    31.6990    39.6470 ha         1 MOL       0.000000
     37 H10         38.3340    33.2580    40.8190 ha         1 MOL       0.000000
     38 H11         39.4400    32.1690    43.4490 hc         1 MOL       0.000000
     39 H12         40.7100    30.8570    43.6390 hc         1 MOL       0.000000
     40 H13         37.3780    31.5000    45.0740 ha         1 MOL       0.000000
     41 H14         35.5890    29.8240    45.0190 ha         1 MOL       0.000000
     42 H15         35.9940    27.6270    44.0000 ha         1 MOL       0.000000
     43 H16         38.1850    27.1150    43.0420 ha         1 MOL       0.000000
     44 H17         39.9590    28.7980    43.1040 ha         1 MOL       0.000000
     45 H18         43.0460    30.1410    46.4430 hc         1 MOL       0.000000
     46 H19         42.3970    30.3190    43.5650 hc         1 MOL       0.000000
     47 H20         43.7040    29.4180    44.2950 hc         1 MOL       0.000000
     48 H21         43.6740    31.1610    44.4100 hc         1 MOL       0.000000
     49 H22         40.7210    28.7990    45.2350 hc         1 MOL       0.000000
     50 H23         41.1500    28.8460    46.9280 hc         1 MOL       0.000000
     51 H24         42.2030    28.0530    45.7820 hc         1 MOL       0.000000
@<TRIPOS>BOND
     1     1     2 1   
     2     1     9 2   
     3     2     3 1   
     4     3     4 2   
     5     3     5 1   
     6     5     6 1   
     7     7     5 1   
     8     7     8 2   
     9     9     7 1   
    10    10     2 1   
    11    10    29 1   
    12    10    30 1   
    13    11    10 1   
    14    12    11 1   
    15    12    31 1   
    16    12    32 1   
    17    13    14 ar  
    18    13    12 1   
    19    14    33 1   
    20    15    14 ar  
    21    15    34 1   
    22    16    15 ar  
    23    16    35 1   
    24    17    16 ar  
    25    17    18 ar  
    26    17    36 1   
    27    18    13 ar  
    28    18    37 1   
    29    19    20 1   
    30    19     1 1   
    31    19    38 1   
    32    19    39 1   
    33    20    21 ar  
    34    21    40 1   
    35    22    21 ar  
    36    22    41 1   
    37    23    22 ar  
    38    23    42 1   
    39    24    25 ar  
    40    24    23 ar  
    41    24    43 1   
    42    25    20 ar  
    43    25    44 1   
    44    26    28 1   
    45    26     9 1   
    46    26    45 1   
    47    27    26 1   
    48    27    46 1   
    49    27    47 1   
    50    27    48 1   
    51    28    49 1   
    52    28    50 1   
    53    28    51 1   
@<TRIPOS>SUBSTRUCTURE
     1 MOL         1 TEMP              0 ****  ****    0 ROOT
