MODEL 1
REMARK VINA RESULT:      -8.4      0.000      0.000
REMARK  7 active torsions:
REMARK  status: ('A' for Active; 'I' for Inactive)
REMARK    1  A    between atoms: C_1  and  C10_16 
REMARK    2  A    between atoms: C6_7  and  C10_16 
REMARK    3  A    between atoms: N_8  and  C14_20 
REMARK    4  A    between atoms: C9_15  and  C11_17 
REMARK    5  A    between atoms: C14_20  and  O2_21 
REMARK    6  A    between atoms: O2_21  and  C15_22 
REMARK    7  A    between atoms: C15_22  and  C16_23 
ROOT
ATOM      1  C6  UNL d          37.648  33.584  44.433  0.00  0.00     0.035 A 
ATOM      2  N   UNL d          36.323  33.898  44.045  0.00  0.00    -0.280 N 
ATOM      3  C7  UNL d          36.046  34.967  43.161  0.00  0.00     0.331 A 
ATOM      4  O   UNL d          34.917  35.253  42.768  0.00  0.00    -0.246 OA
ATOM      5  N1  UNL d          37.141  35.682  42.712  0.00  0.00    -0.275 N 
ATOM      6  H5  UNL d          36.949  36.466  42.072  0.00  0.00     0.173 HD
ATOM      7  C8  UNL d          38.476  35.452  43.035  0.00  0.00     0.257 A 
ATOM      8  O1  UNL d          39.351  36.177  42.563  0.00  0.00    -0.267 OA
ATOM      9  C9  UNL d          38.735  34.344  43.932  0.00  0.00     0.037 A 
ENDROOT
BRANCH   2  10
ATOM     10  C14 UNL d          35.152  33.080  44.485  0.00  0.00     0.303 C 
BRANCH  10  11
ATOM     11  O2  UNL d          34.634  33.578  45.706  0.00  0.00    -0.367 OA
BRANCH  11  12
ATOM     12  C15 UNL d          33.263  33.925  45.601  0.00  0.00     0.208 C 
BRANCH  12  13
ATOM     13  C16 UNL d          32.633  34.022  46.956  0.00  0.00    -0.035 A 
ATOM     14  C17 UNL d          31.736  35.068  47.246  0.00  0.00     0.009 A 
ATOM     15  C18 UNL d          31.054  35.098  48.477  0.00  0.00     0.001 A 
ATOM     16  C19 UNL d          31.276  34.071  49.422  0.00  0.00     0.000 A 
ATOM     17  C20 UNL d          32.183  33.025  49.126  0.00  0.00     0.001 A 
ATOM     18  C21 UNL d          32.860  33.008  47.890  0.00  0.00     0.009 A 
ENDBRANCH  12  13
ENDBRANCH  11  12
ENDBRANCH  10  11
ENDBRANCH   2  10
BRANCH   1  19
ATOM     19  C10 UNL d          37.836  32.373  45.365  0.00  0.00     0.096 C 
BRANCH  19  20
ATOM     20  C   UNL d          37.933  30.963  44.804  0.00  0.00    -0.053 A 
ATOM     21  C1  UNL d          39.199  30.447  44.481  0.00  0.00     0.007 A 
ATOM     22  C2  UNL d          39.325  29.099  44.054  0.00  0.00     0.001 A 
ATOM     23  C3  UNL d          38.171  28.274  43.951  0.00  0.00     0.000 A 
ATOM     24  C4  UNL d          36.902  28.797  44.271  0.00  0.00     0.001 A 
ATOM     25  C5  UNL d          36.789  30.143  44.695  0.00  0.00     0.007 A 
ENDBRANCH  19  20
ENDBRANCH   1  19
BRANCH   9  26
ATOM     26  C11 UNL d          40.235  34.060  44.151  0.00  0.00     0.018 C 
ATOM     27  C12 UNL d          40.851  33.038  43.176  0.00  0.00     0.015 C 
ATOM     28  C13 UNL d          40.637  33.911  45.603  0.00  0.00     0.015 C 
ENDBRANCH   9  26
TORSDOF 7
ENDMDL
MODEL 2
REMARK VINA RESULT:      -7.9      4.227      6.750
REMARK  7 active torsions:
REMARK  status: ('A' for Active; 'I' for Inactive)
REMARK    1  A    between atoms: C_1  and  C10_16 
REMARK    2  A    between atoms: C6_7  and  C10_16 
REMARK    3  A    between atoms: N_8  and  C14_20 
REMARK    4  A    between atoms: C9_15  and  C11_17 
REMARK    5  A    between atoms: C14_20  and  O2_21 
REMARK    6  A    between atoms: O2_21  and  C15_22 
REMARK    7  A    between atoms: C15_22  and  C16_23 
ROOT
ATOM      1  C6  UNL d          40.406  32.011  45.318  0.00  0.00     0.035 A 
ATOM      2  N   UNL d          39.837  33.244  45.719  0.00  0.00    -0.280 N 
ATOM      3  C7  UNL d          40.296  33.930  46.867  0.00  0.00     0.331 A 
ATOM      4  O   UNL d          39.859  35.020  47.232  0.00  0.00    -0.246 OA
ATOM      5  N1  UNL d          41.320  33.321  47.570  0.00  0.00    -0.275 N 
ATOM      6  H5  UNL d          41.658  33.811  48.410  0.00  0.00     0.173 HD
ATOM      7  C8  UNL d          41.941  32.116  47.258  0.00  0.00     0.257 A 
ATOM      8  O1  UNL d          42.840  31.688  47.980  0.00  0.00    -0.267 OA
ATOM      9  C9  UNL d          41.462  31.437  46.070  0.00  0.00     0.037 A 
ENDROOT
BRANCH   2  10
ATOM     10  C14 UNL d          38.774  33.926  44.918  0.00  0.00     0.303 C 
BRANCH  10  11
ATOM     11  O2  UNL d          39.330  34.993  44.170  0.00  0.00    -0.367 OA
BRANCH  11  12
ATOM     12  C15 UNL d          38.935  34.950  42.808  0.00  0.00     0.208 C 
BRANCH  12  13
ATOM     13  C16 UNL d          39.866  34.091  42.011  0.00  0.00    -0.035 A 
ATOM     14  C17 UNL d          41.242  34.068  42.312  0.00  0.00     0.009 A 
ATOM     15  C18 UNL d          42.100  33.175  41.642  0.00  0.00     0.001 A 
ATOM     16  C19 UNL d          41.574  32.302  40.665  0.00  0.00     0.000 A 
ATOM     17  C20 UNL d          40.191  32.334  40.363  0.00  0.00     0.001 A 
ATOM     18  C21 UNL d          39.342  33.233  41.040  0.00  0.00     0.009 A 
ENDBRANCH  12  13
ENDBRANCH  11  12
ENDBRANCH  10  11
ENDBRANCH   2  10
BRANCH   1  19
ATOM     19  C10 UNL d          39.857  31.373  44.029  0.00  0.00     0.096 C 
BRANCH  19  20
ATOM     20  C   UNL d          38.801  30.280  44.086  0.00  0.00    -0.053 A 
ATOM     21  C1  UNL d          37.547  30.577  44.643  0.00  0.00     0.007 A 
ATOM     22  C2  UNL d          36.512  29.606  44.613  0.00  0.00     0.001 A 
ATOM     23  C3  UNL d          36.747  28.333  44.023  0.00  0.00     0.000 A 
ATOM     24  C4  UNL d          38.009  28.037  43.470  0.00  0.00     0.001 A 
ATOM     25  C5  UNL d          39.033  29.014  43.506  0.00  0.00     0.007 A 
ENDBRANCH  19  20
ENDBRANCH   1  19
BRANCH   9  26
ATOM     26  C11 UNL d          42.271  30.176  45.706  0.00  0.00     0.018 C 
ATOM     27  C12 UNL d          43.073  30.276  44.394  0.00  0.00     0.015 C 
ATOM     28  C13 UNL d          41.532  28.873  45.929  0.00  0.00     0.015 C 
ENDBRANCH   9  26
TORSDOF 7
ENDMDL
MODEL 3
REMARK VINA RESULT:      -7.9      3.216      4.710
REMARK  7 active torsions:
REMARK  status: ('A' for Active; 'I' for Inactive)
REMARK    1  A    between atoms: C_1  and  C10_16 
REMARK    2  A    between atoms: C6_7  and  C10_16 
REMARK    3  A    between atoms: N_8  and  C14_20 
REMARK    4  A    between atoms: C9_15  and  C11_17 
REMARK    5  A    between atoms: C14_20  and  O2_21 
REMARK    6  A    between atoms: O2_21  and  C15_22 
REMARK    7  A    between atoms: C15_22  and  C16_23 
ROOT
ATOM      1  C6  UNL d          40.466  32.711  44.027  0.00  0.00     0.035 A 
ATOM      2  N   UNL d          40.338  33.127  42.679  0.00  0.00    -0.280 N 
ATOM      3  C7  UNL d          41.467  33.504  41.914  0.00  0.00     0.331 A 
ATOM      4  O   UNL d          41.410  33.836  40.732  0.00  0.00    -0.246 OA
ATOM      5  N1  UNL d          42.687  33.448  42.562  0.00  0.00    -0.275 N 
ATOM      6  H5  UNL d          43.514  33.725  42.015  0.00  0.00     0.173 HD
ATOM      7  C8  UNL d          42.913  33.054  43.879  0.00  0.00     0.257 A 
ATOM      8  O1  UNL d          44.058  33.059  44.328  0.00  0.00    -0.267 OA
ATOM      9  C9  UNL d          41.743  32.661  44.639  0.00  0.00     0.037 A 
ENDROOT
BRANCH   2  10
ATOM     10  C14 UNL d          39.024  33.124  41.968  0.00  0.00     0.303 C 
BRANCH  10  11
ATOM     11  O2  UNL d          38.595  34.452  41.721  0.00  0.00    -0.367 OA
BRANCH  11  12
ATOM     12  C15 UNL d          37.936  35.016  42.843  0.00  0.00     0.208 C 
BRANCH  12  13
ATOM     13  C16 UNL d          36.467  34.732  42.796  0.00  0.00    -0.035 A 
ATOM     14  C17 UNL d          35.879  33.885  43.755  0.00  0.00     0.009 A 
ATOM     15  C18 UNL d          34.483  33.707  43.785  0.00  0.00     0.001 A 
ATOM     16  C19 UNL d          33.674  34.384  42.846  0.00  0.00     0.000 A 
ATOM     17  C20 UNL d          34.272  35.230  41.881  0.00  0.00     0.001 A 
ATOM     18  C21 UNL d          35.671  35.398  41.861  0.00  0.00     0.009 A 
ENDBRANCH  12  13
ENDBRANCH  11  12
ENDBRANCH  10  11
ENDBRANCH   2  10
BRANCH   1  19
ATOM     19  C10 UNL d          39.176  32.283  44.751  0.00  0.00     0.096 C 
BRANCH  19  20
ATOM     20  C   UNL d          38.522  30.943  44.454  0.00  0.00    -0.053 A 
ATOM     21  C1  UNL d          39.308  29.906  43.925  0.00  0.00     0.007 A 
ATOM     22  C2  UNL d          38.744  28.617  43.737  0.00  0.00     0.001 A 
ATOM     23  C3  UNL d          37.385  28.377  44.081  0.00  0.00     0.000 A 
ATOM     24  C4  UNL d          36.599  29.421  44.607  0.00  0.00     0.001 A 
ATOM     25  C5  UNL d          37.172  30.703  44.789  0.00  0.00     0.007 A 
ENDBRANCH  19  20
ENDBRANCH   1  19
BRANCH   9  26
ATOM     26  C11 UNL d          42.070  32.117  46.044  0.00  0.00     0.018 C 
ATOM     27  C12 UNL d          41.957  30.587  46.189  0.00  0.00     0.015 C 
ATOM     28  C13 UNL d          41.489  32.931  47.181  0.00  0.00     0.015 C 
ENDBRANCH   9  26
TORSDOF 7
ENDMDL
