@<TRIPOS>MOLECULE
MOL
   51    53     1     0     0
SMALL
No Charge or Current Charge


@<TRIPOS>ATOM
      1 C1          40.4660    32.7110    44.0270 cc         1 MOL       0.000000
      2 N1          40.3380    33.1270    42.6790 n          1 MOL       0.000000
      3 C2          41.4670    33.5040    41.9140 c          1 MOL       0.000000
      4 O1          41.4100    33.8360    40.7320 o          1 MOL       0.000000
      5 N2          42.6870    33.4480    42.5620 n          1 MOL       0.000000
      6 H1          43.5140    33.7250    42.0150 hn         1 MOL       0.000000
      7 C3          42.9130    33.0540    43.8790 c          1 MOL       0.000000
      8 O2          44.0580    33.0590    44.3280 o          1 MOL       0.000000
      9 C4          41.7430    32.6610    44.6390 cd         1 MOL       0.000000
     10 C5          39.0240    33.1240    41.9680 c3         1 MOL       0.000000
     11 O3          38.5950    34.4520    41.7210 os         1 MOL       0.000000
     12 C6          37.9360    35.0160    42.8430 c3         1 MOL       0.000000
     13 C7          36.4670    34.7320    42.7960 ca         1 MOL       0.000000
     14 C8          35.8790    33.8850    43.7550 ca         1 MOL       0.000000
     15 C9          34.4830    33.7070    43.7850 ca         1 MOL       0.000000
     16 C10         33.6740    34.3840    42.8460 ca         1 MOL       0.000000
     17 C11         34.2720    35.2300    41.8810 ca         1 MOL       0.000000
     18 C12         35.6710    35.3980    41.8610 ca         1 MOL       0.000000
     19 C13         39.1760    32.2830    44.7510 c3         1 MOL       0.000000
     20 C14         38.5220    30.9430    44.4540 ca         1 MOL       0.000000
     21 C15         39.3080    29.9060    43.9250 ca         1 MOL       0.000000
     22 C16         38.7440    28.6170    43.7370 ca         1 MOL       0.000000
     23 C17         37.3850    28.3770    44.0810 ca         1 MOL       0.000000
     24 C18         36.5990    29.4210    44.6070 ca         1 MOL       0.000000
     25 C19         37.1720    30.7030    44.7890 ca         1 MOL       0.000000
     26 C20         42.0700    32.1170    46.0440 c3         1 MOL       0.000000
     27 C21         41.9570    30.5870    46.1890 c3         1 MOL       0.000000
     28 C22         41.4890    32.9310    47.1810 c3         1 MOL       0.000000
     29 H2          39.1280    32.6080    41.0370 h2         1 MOL       0.000000
     30 H3          38.2980    32.6320    42.5810 h2         1 MOL       0.000000
     31 H4          38.0890    36.0750    42.8430 h1         1 MOL       0.000000
     32 H5          38.3410    34.5810    43.7330 h1         1 MOL       0.000000
     33 H6          36.4740    33.3920    44.4390 ha         1 MOL       0.000000
     34 H7          34.0530    33.0860    44.4890 ha         1 MOL       0.000000
     35 H8          32.6490    34.2620    42.8630 ha         1 MOL       0.000000
     36 H9          33.6830    35.7240    41.1920 ha         1 MOL       0.000000
     37 H10         36.1070    36.0130    41.1560 ha         1 MOL       0.000000
     38 H11         38.4440    33.0330    44.5380 hc         1 MOL       0.000000
     39 H12         39.5000    32.1680    45.7640 hc         1 MOL       0.000000
     40 H13         40.2940    30.0810    43.6730 ha         1 MOL       0.000000
     41 H14         39.3210    27.8530    43.3500 ha         1 MOL       0.000000
     42 H15         36.9750    27.4390    43.9460 ha         1 MOL       0.000000
     43 H16         35.6120    29.2530    44.8580 ha         1 MOL       0.000000
     44 H17         36.5960    31.4700    45.1710 ha         1 MOL       0.000000
     45 H18         43.1230    32.2780    46.1480 hc         1 MOL       0.000000
     46 H19         40.9310    30.2950    46.1010 hc         1 MOL       0.000000
     47 H20         42.3310    30.2910    47.1470 hc         1 MOL       0.000000
     48 H21         42.5300    30.1130    45.4200 hc         1 MOL       0.000000
     49 H22         40.4230    32.8430    47.1740 hc         1 MOL       0.000000
     50 H23         41.7630    33.9580    47.0600 hc         1 MOL       0.000000
     51 H24         41.8710    32.5670    48.1120 hc         1 MOL       0.000000
@<TRIPOS>BOND
     1     1     9 2   
     2     1    19 1   
     3     2     1 1   
     4     3     5 1   
     5     3     2 1   
     6     4     3 2   
     7     5     7 1   
     8     6     5 1   
     9     7     8 2   
    10     7     9 1   
    11     9    26 1   
    12    10     2 1   
    13    10    29 1   
    14    10    30 1   
    15    11    10 1   
    16    11    12 1   
    17    12    31 1   
    18    12    32 1   
    19    13    12 1   
    20    13    14 ar  
    21    14    15 ar  
    22    14    33 1   
    23    15    34 1   
    24    16    15 ar  
    25    16    35 1   
    26    17    16 ar  
    27    17    36 1   
    28    18    17 ar  
    29    18    13 ar  
    30    18    37 1   
    31    19    38 1   
    32    19    39 1   
    33    20    19 1   
    34    20    25 ar  
    35    21    20 ar  
    36    21    40 1   
    37    22    21 ar  
    38    22    23 ar  
    39    22    41 1   
    40    23    24 ar  
    41    23    42 1   
    42    24    25 ar  
    43    24    43 1   
    44    25    44 1   
    45    26    27 1   
    46    26    28 1   
    47    26    45 1   
    48    27    46 1   
    49    27    47 1   
    50    27    48 1   
    51    28    49 1   
    52    28    50 1   
    53    28    51 1   
@<TRIPOS>SUBSTRUCTURE
     1 MOL         1 TEMP              0 ****  ****    0 ROOT
