@<TRIPOS>MOLECULE
MOL
   27    28     1     0     0
SMALL
No Charge or Current Charge


@<TRIPOS>ATOM
      1 S1          13.9170    15.1980    18.4670 sy         1 MOL       0.000000
      2 O1          15.2540    14.6810    18.3790 o          1 MOL       0.000000
      3 O2          13.0960    14.2960    19.2090 o          1 MOL       0.000000
      4 N1          13.9920    16.7230    19.2990 nh         1 MOL       0.000000
      5 H1          13.3250    17.4730    19.0670 hn         1 MOL       0.000000
      6 C1          14.9730    16.9260    20.2930 ca         1 MOL       0.000000
      7 C2          16.2900    17.2740    19.9170 ca         1 MOL       0.000000
      8 C3          17.2750    17.4730    20.9090 ca         1 MOL       0.000000
      9 C4          16.9420    17.3260    22.2800 ca         1 MOL       0.000000
     10 C5          15.6200    16.9790    22.6620 ca         1 MOL       0.000000
     11 Cl1         18.1650    17.5670    23.4990 cl         1 MOL       0.000000
     12 C6          14.6330    16.7760    21.6680 ca         1 MOL       0.000000
     13 C7          13.2270    15.4190    16.7620 cc         1 MOL       0.000000
     14 C8          13.6730    16.3130    15.7790 cd         1 MOL       0.000000
     15 S2          12.8660    16.1410    14.6340 ss         1 MOL       0.000000
     16 C9          11.9250    15.1500    14.9310 cd         1 MOL       0.000000
     17 C10         12.1490    14.7060    16.2300 cc         1 MOL       0.000000
     18 C11         14.7920    17.2780    15.8930 c          1 MOL       0.000000
     19 O3          15.8090    17.2460    15.0380 o          1 MOL       0.000000
     20 O4          14.7690    18.1160    16.7880 oh         1 MOL       0.000000
     21 H2          16.5310    17.3830    18.9190 ha         1 MOL       0.000000
     22 H3          18.2380    17.7260    20.6360 ha         1 MOL       0.000000
     23 H4          15.3790    16.8750    23.6600 ha         1 MOL       0.000000
     24 H5          13.6710    16.5200    21.9390 ha         1 MOL       0.000000
     25 H6          11.1890    14.8060    14.2940 h4         1 MOL       0.000000
     26 H7          11.6100    13.9740    16.7180 ha         1 MOL       0.000000
     27 H8          14.0520    18.1380    17.3910 ho         1 MOL       0.000000
@<TRIPOS>BOND
     1     1     3 2   
     2     1     4 1   
     3     2     1 2   
     4     4     6 1   
     5     5     4 1   
     6     6    12 ar  
     7     7     6 ar  
     8     7     8 ar  
     9     7    21 1   
    10     8     9 ar  
    11     8    22 1   
    12     9    10 ar  
    13     9    11 1   
    14    10    23 1   
    15    12    10 ar  
    16    12    24 1   
    17    13     1 1   
    18    14    18 1   
    19    14    13 2   
    20    15    16 1   
    21    15    14 1   
    22    16    17 2   
    23    16    25 1   
    24    17    13 1   
    25    17    26 1   
    26    18    20 1   
    27    19    18 2   
    28    20    27 1   
@<TRIPOS>SUBSTRUCTURE
     1 MOL         1 TEMP              0 ****  ****    0 ROOT
