@<TRIPOS>MOLECULE
MOL
   27    28     1     0     0
SMALL
No Charge or Current Charge


@<TRIPOS>ATOM
      1 S1          14.9770    16.3690    19.9690 sy         1 MOL       0.000000
      2 O1          13.6450    15.9840    20.3440 o          1 MOL       0.000000
      3 O2          15.6490    15.2630    19.3650 o          1 MOL       0.000000
      4 N1          14.8490    17.6630    18.8150 nh         1 MOL       0.000000
      5 H1          14.7070    18.6320    19.1360 hn         1 MOL       0.000000
      6 C1          14.9400    17.3770    17.4350 ca         1 MOL       0.000000
      7 C2          15.9220    18.0240    16.6500 ca         1 MOL       0.000000
      8 C3          16.0130    17.7440    15.2690 ca         1 MOL       0.000000
      9 C4          15.1230    16.8150    14.6730 ca         1 MOL       0.000000
     10 C5          14.1390    16.1610    15.4570 ca         1 MOL       0.000000
     11 Cl1         15.2390    16.4790    12.9650 cl         1 MOL       0.000000
     12 C6          14.0430    16.4430    16.8420 ca         1 MOL       0.000000
     13 C7          15.9070    16.9250    21.4710 cc         1 MOL       0.000000
     14 C8          17.2490    17.3250    21.5340 cd         1 MOL       0.000000
     15 S2          17.5390    17.6700    22.8720 ss         1 MOL       0.000000
     16 C9          16.3740    17.4660    23.6180 cd         1 MOL       0.000000
     17 C10         15.3760    17.0150    22.7610 cc         1 MOL       0.000000
     18 C11         18.2140    17.3880    20.4120 c          1 MOL       0.000000
     19 O3          17.9360    18.0780    19.3110 o          1 MOL       0.000000
     20 O4          19.2840    16.7950    20.5100 oh         1 MOL       0.000000
     21 H2          16.5700    18.6990    17.0850 ha         1 MOL       0.000000
     22 H3          16.7280    18.2160    14.6930 ha         1 MOL       0.000000
     23 H4          13.4950    15.4820    15.0210 ha         1 MOL       0.000000
     24 H5          13.3270    15.9740    17.4180 ha         1 MOL       0.000000
     25 H6          16.2720    17.6230    24.6330 h4         1 MOL       0.000000
     26 H7          14.4070    16.7850    23.0320 ha         1 MOL       0.000000
     27 H8          19.4800    16.3080    21.2860 ho         1 MOL       0.000000
@<TRIPOS>BOND
     1     1     2 2   
     2     1    13 1   
     3     3     1 2   
     4     4     5 1   
     5     4     1 1   
     6     6     4 1   
     7     7     6 ar  
     8     7    21 1   
     9     8     7 ar  
    10     8    22 1   
    11     9     8 ar  
    12     9    10 ar  
    13    10    12 ar  
    14    10    23 1   
    15    11     9 1   
    16    12     6 ar  
    17    12    24 1   
    18    13    14 2   
    19    13    17 1   
    20    14    15 1   
    21    15    16 1   
    22    16    25 1   
    23    17    16 2   
    24    17    26 1   
    25    18    20 1   
    26    18    14 1   
    27    19    18 2   
    28    20    27 1   
@<TRIPOS>SUBSTRUCTURE
     1 MOL         1 TEMP              0 ****  ****    0 ROOT
