@<TRIPOS>MOLECULE
MOL
   38    40     1     0     0
SMALL
No Charge or Current Charge


@<TRIPOS>ATOM
      1 C1          18.3240     5.9740     3.8020 c          1 MOL       0.000000
      2 O1          17.4070     6.7280     4.1830 o          1 MOL       0.000000
      3 N1          18.9370     6.1490     2.5590 n          1 MOL       0.000000
      4 H1          19.5430     5.4000     2.1950 hn         1 MOL       0.000000
      5 C2          18.7540     7.3390     1.7690 c3         1 MOL       0.000000
      6 C3          20.0330     7.8920     1.1820 cc         1 MOL       0.000000
      7 N2          20.3180     9.1880     1.1420 nd         1 MOL       0.000000
      8 C4          21.5660     9.3710     0.5420 ca         1 MOL       0.000000
      9 C5          22.2170     8.1370     0.1260 ca         1 MOL       0.000000
     10 C6          22.2020    10.6400     0.3280 ca         1 MOL       0.000000
     11 S1          21.2250     6.8300     0.5120 ss         1 MOL       0.000000
     12 C7          23.5040     8.1980    -0.5050 ca         1 MOL       0.000000
     13 F1          24.1250     7.0580    -0.8980 f          1 MOL       0.000000
     14 C8          24.1340     9.4510    -0.7160 ca         1 MOL       0.000000
     15 C9          23.4860    10.6650    -0.3030 ca         1 MOL       0.000000
     16 F2          24.1030    11.8500    -0.5150 f          1 MOL       0.000000
     17 F3          21.6120    11.7770     0.7060 f          1 MOL       0.000000
     18 C10         18.8070     4.8410     4.6640 ca         1 MOL       0.000000
     19 C11         17.8320     4.1180     5.4210 ca         1 MOL       0.000000
     20 C12         18.2010     3.0350     6.2640 ca         1 MOL       0.000000
     21 C13         19.5840     2.6560     6.3570 ca         1 MOL       0.000000
     22 C14         20.5710     3.3480     5.6210 ca         1 MOL       0.000000
     23 F4          19.9800     1.6300     7.1450 f          1 MOL       0.000000
     24 C15         20.1890     4.4400     4.7770 ca         1 MOL       0.000000
     25 O2          21.0980     5.1870     4.0120 os         1 MOL       0.000000
     26 C16         22.1290     5.9370     4.6670 c3         1 MOL       0.000000
     27 C17         21.7420     7.4050     4.6610 c          1 MOL       0.000000
     28 O3          20.6390     7.9550     4.6320 o          1 MOL       0.000000
     29 O4          22.8360     8.1940     4.7000 oh         1 MOL       0.000000
     30 H2          18.0870     7.1090     0.9650 h1         1 MOL       0.000000
     31 H3          18.3660     8.0890     2.4260 h1         1 MOL       0.000000
     32 H4          25.0610     9.4910    -1.1680 ha         1 MOL       0.000000
     33 H5          16.8380     4.3890     5.3530 ha         1 MOL       0.000000
     34 H6          17.4830     2.5260     6.8040 ha         1 MOL       0.000000
     35 H7          21.5620     3.0680     5.6910 ha         1 MOL       0.000000
     36 H8          23.0550     5.8070     4.1470 h1         1 MOL       0.000000
     37 H9          22.2450     5.5950     5.6740 h1         1 MOL       0.000000
     38 H10         23.6900     7.8100     4.7230 ho         1 MOL       0.000000
@<TRIPOS>BOND
     1     1     2 2   
     2     1    18 1   
     3     3     1 1   
     4     4     3 1   
     5     5     3 1   
     6     5    30 1   
     7     5    31 1   
     8     6     5 1   
     9     7     6 2   
    10     8     7 1   
    11     9    11 1   
    12     9     8 ar  
    13    10     8 ar  
    14    10    17 1   
    15    11     6 1   
    16    12     9 ar  
    17    13    12 1   
    18    14    12 ar  
    19    14    15 ar  
    20    14    32 1   
    21    15    10 ar  
    22    16    15 1   
    23    18    24 ar  
    24    18    19 ar  
    25    19    20 ar  
    26    19    33 1   
    27    20    21 ar  
    28    20    34 1   
    29    21    23 1   
    30    22    21 ar  
    31    22    35 1   
    32    24    22 ar  
    33    25    26 1   
    34    25    24 1   
    35    26    36 1   
    36    26    37 1   
    37    27    26 1   
    38    27    29 1   
    39    28    27 2   
    40    29    38 1   
@<TRIPOS>SUBSTRUCTURE
     1 MOL         1 TEMP              0 ****  ****    0 ROOT
