@<TRIPOS>MOLECULE
MOL
   38    40     1     0     0
SMALL
No Charge or Current Charge


@<TRIPOS>ATOM
      1 C1          18.6490     6.3550     2.8390 c          1 MOL       0.000000
      2 O1          17.8160     6.1840     1.9270 o          1 MOL       0.000000
      3 N1          19.5330     7.4370     2.8200 n          1 MOL       0.000000
      4 H1          20.3300     7.4370     3.4720 hn         1 MOL       0.000000
      5 C2          19.3700     8.5510     1.9220 c3         1 MOL       0.000000
      6 C3          20.6280     8.9300     1.1750 cc         1 MOL       0.000000
      7 N2          20.9600    10.1830     0.8910 nd         1 MOL       0.000000
      8 C4          22.1720    10.1970     0.1970 ca         1 MOL       0.000000
      9 C5          22.7470     8.8800    -0.0310 ca         1 MOL       0.000000
     10 C6          22.8410    11.3780    -0.2740 ca         1 MOL       0.000000
     11 S1          21.7320     7.7100     0.6360 ss         1 MOL       0.000000
     12 C7          23.9920     8.7660    -0.7340 ca         1 MOL       0.000000
     13 F1          24.5430     7.5470    -0.9550 f          1 MOL       0.000000
     14 C8          24.6550     9.9310    -1.2000 ca         1 MOL       0.000000
     15 C9          24.0820    11.2290    -0.9710 ca         1 MOL       0.000000
     16 F2          24.7290    12.3270    -1.4240 f          1 MOL       0.000000
     17 F3          22.3220    12.5900    -0.0700 f          1 MOL       0.000000
     18 C10         18.7410     5.4000     3.9960 ca         1 MOL       0.000000
     19 C11         17.5270     5.0440     4.6640 ca         1 MOL       0.000000
     20 C12         17.5230     4.1500     5.7680 ca         1 MOL       0.000000
     21 C13         18.7640     3.5900     6.2250 ca         1 MOL       0.000000
     22 C14         19.9800     3.9200     5.5860 ca         1 MOL       0.000000
     23 F4          18.8070     2.7330     7.2720 f          1 MOL       0.000000
     24 C15         19.9750     4.8230     4.4760 ca         1 MOL       0.000000
     25 O2          21.1310     5.2110     3.7820 os         1 MOL       0.000000
     26 C16         22.1900     5.8750     4.4820 c3         1 MOL       0.000000
     27 C17         21.7250     7.2680     4.8640 c          1 MOL       0.000000
     28 O3          20.9030     7.6500     5.7020 oh         1 MOL       0.000000
     29 O4          22.3540     8.2080     4.1300 o          1 MOL       0.000000
     30 H2          18.6170     8.2980     1.2050 h1         1 MOL       0.000000
     31 H3          19.1010     9.3950     2.5220 h1         1 MOL       0.000000
     32 H4          25.5510     9.8460    -1.7050 ha         1 MOL       0.000000
     33 H5          16.6340     5.4460     4.3370 ha         1 MOL       0.000000
     34 H6          16.6370     3.9050     6.2370 ha         1 MOL       0.000000
     35 H7          20.8680     3.5120     5.9180 ha         1 MOL       0.000000
     36 H8          23.0510     5.9440     3.8500 h1         1 MOL       0.000000
     37 H9          22.4460     5.3230     5.3620 h1         1 MOL       0.000000
     38 H10         20.4470     7.0240     6.2300 ho         1 MOL       0.000000
@<TRIPOS>BOND
     1     1    18 1   
     2     2     1 2   
     3     3     1 1   
     4     3     4 1   
     5     5     3 1   
     6     5    30 1   
     7     5    31 1   
     8     6     5 1   
     9     7     6 2   
    10     8     7 1   
    11     9     8 ar  
    12     9    11 1   
    13    10    17 1   
    14    10     8 ar  
    15    11     6 1   
    16    12     9 ar  
    17    13    12 1   
    18    14    15 ar  
    19    14    12 ar  
    20    14    32 1   
    21    15    10 ar  
    22    16    15 1   
    23    18    24 ar  
    24    18    19 ar  
    25    19    20 ar  
    26    19    33 1   
    27    20    21 ar  
    28    20    34 1   
    29    21    23 1   
    30    22    21 ar  
    31    22    35 1   
    32    24    22 ar  
    33    25    24 1   
    34    25    26 1   
    35    26    27 1   
    36    26    36 1   
    37    26    37 1   
    38    27    28 1   
    39    28    38 1   
    40    29    27 2   
@<TRIPOS>SUBSTRUCTURE
     1 MOL         1 TEMP              0 ****  ****    0 ROOT
