@<TRIPOS>MOLECULE
MOL
   38    40     1     0     0
SMALL
No Charge or Current Charge


@<TRIPOS>ATOM
      1 C1          18.3010     5.8380     3.5750 c          1 MOL       0.000000
      2 O1          17.8890     6.9510     3.9590 o          1 MOL       0.000000
      3 N1          18.3250     5.5030     2.2190 n          1 MOL       0.000000
      4 H1          18.4780     4.5190     1.9540 hn         1 MOL       0.000000
      5 C2          18.1440     6.4810     1.1780 c3         1 MOL       0.000000
      6 C3          19.3640     7.3330     0.9140 cc         1 MOL       0.000000
      7 N2          20.4550     6.8800     0.3090 nd         1 MOL       0.000000
      8 C4          21.3960     7.9080     0.2170 ca         1 MOL       0.000000
      9 C5          20.9590     9.1740     0.7880 ca         1 MOL       0.000000
     10 C6          22.6980     7.7870    -0.3780 ca         1 MOL       0.000000
     11 S1          19.4000     8.9940     1.4040 ss         1 MOL       0.000000
     12 C7          21.8410    10.3050     0.7550 ca         1 MOL       0.000000
     13 F1          21.4500    11.4910     1.2820 f          1 MOL       0.000000
     14 C8          23.1270    10.1860     0.1670 ca         1 MOL       0.000000
     15 C9          23.5520     8.9340    -0.3960 ca         1 MOL       0.000000
     16 F2          24.7820     8.8420    -0.9510 f          1 MOL       0.000000
     17 F3          23.1080     6.6300    -0.9050 f          1 MOL       0.000000
     18 C10         18.7850     4.8080     4.5570 ca         1 MOL       0.000000
     19 C11         17.8130     4.1830     5.4000 ca         1 MOL       0.000000
     20 C12         18.1850     3.2010     6.3580 ca         1 MOL       0.000000
     21 C13         19.5660     2.8260     6.4820 ca         1 MOL       0.000000
     22 C14         20.5500     3.4230     5.6630 ca         1 MOL       0.000000
     23 F4          19.9640     1.8950     7.3790 f          1 MOL       0.000000
     24 C15         20.1670     4.4130     4.7030 ca         1 MOL       0.000000
     25 O2          21.0720     5.0620     3.8500 os         1 MOL       0.000000
     26 C16         22.1200     5.8670     4.4060 c3         1 MOL       0.000000
     27 C17         21.5770     7.2600     4.6670 c          1 MOL       0.000000
     28 O3          20.7940     7.6810     5.5220 oh         1 MOL       0.000000
     29 O4          22.0760     8.1480     3.7830 o          1 MOL       0.000000
     30 H2          17.8910     5.9670     0.2740 h1         1 MOL       0.000000
     31 H3          17.3700     7.1430     1.5070 h1         1 MOL       0.000000
     32 H4          23.7590    11.0010     0.1440 ha         1 MOL       0.000000
     33 H5          16.8200     4.4510     5.3110 ha         1 MOL       0.000000
     34 H6          17.4700     2.7620     6.9590 ha         1 MOL       0.000000
     35 H7          21.5400     3.1470     5.7560 ha         1 MOL       0.000000
     36 H8          22.9360     5.9220     3.7160 h1         1 MOL       0.000000
     37 H9          22.4660     5.4330     5.3210 h1         1 MOL       0.000000
     38 H10         20.4280     7.0920     6.1520 ho         1 MOL       0.000000
@<TRIPOS>BOND
     1     1     2 2   
     2     1    18 1   
     3     3     1 1   
     4     4     3 1   
     5     5     3 1   
     6     5    30 1   
     7     5    31 1   
     8     6     5 1   
     9     6    11 1   
    10     7     6 2   
    11     8     7 1   
    12     8     9 ar  
    13     9    11 1   
    14    10     8 ar  
    15    12     9 ar  
    16    12    13 1   
    17    14    12 ar  
    18    14    32 1   
    19    15    10 ar  
    20    15    14 ar  
    21    16    15 1   
    22    17    10 1   
    23    18    24 ar  
    24    18    19 ar  
    25    19    20 ar  
    26    19    33 1   
    27    20    21 ar  
    28    20    34 1   
    29    21    23 1   
    30    22    21 ar  
    31    22    35 1   
    32    24    22 ar  
    33    25    26 1   
    34    25    24 1   
    35    26    27 1   
    36    26    36 1   
    37    26    37 1   
    38    27    28 1   
    39    28    38 1   
    40    29    27 2   
@<TRIPOS>SUBSTRUCTURE
     1 MOL         1 TEMP              0 ****  ****    0 ROOT
