@<TRIPOS>MOLECULE
MOL
   38    40     1     0     0
SMALL
No Charge or Current Charge


@<TRIPOS>ATOM
      1 C1          49.1440    16.7970    19.6630 c          1 MOL       0.000000
      2 O1          50.0370    15.9740    19.9510 o          1 MOL       0.000000
      3 N1          47.8060    16.4100    19.5670 n          1 MOL       0.000000
      4 H1          47.1320    17.0590    19.1370 hn         1 MOL       0.000000
      5 C2          47.3340    15.1370    20.0480 c3         1 MOL       0.000000
      6 C3          45.9840    14.7340    19.5000 cc         1 MOL       0.000000
      7 N2          44.8670    15.4130    19.7350 nd         1 MOL       0.000000
      8 C4          43.7980    14.7850    19.0920 ca         1 MOL       0.000000
      9 C5          44.1640    13.5860    18.3520 ca         1 MOL       0.000000
     10 C6          42.4350    15.2370    19.1220 ca         1 MOL       0.000000
     11 S1          45.8220    13.3230    18.5100 ss         1 MOL       0.000000
     12 C7          43.1500    12.8540    17.6500 ca         1 MOL       0.000000
     13 F1          43.4730    11.7350    16.9550 f          1 MOL       0.000000
     14 C8          41.8040    13.2990    17.6780 ca         1 MOL       0.000000
     15 C9          41.4480    14.4830    18.4110 ca         1 MOL       0.000000
     16 F2          40.1590    14.8900    18.4260 f          1 MOL       0.000000
     17 F3          42.0890    16.3340    19.7980 f          1 MOL       0.000000
     18 C10         49.4740    18.2400    19.4020 ca         1 MOL       0.000000
     19 C11         50.0820    18.9860    20.4610 ca         1 MOL       0.000000
     20 C12         50.4240    20.3560    20.3010 ca         1 MOL       0.000000
     21 C13         50.1540    21.0070    19.0490 ca         1 MOL       0.000000
     22 C14         49.5560    20.2980    17.9830 ca         1 MOL       0.000000
     23 F4          50.4640    22.3100    18.8520 f          1 MOL       0.000000
     24 C15         49.2130    18.9190    18.1550 ca         1 MOL       0.000000
     25 O2          48.6140    18.1360    17.1570 os         1 MOL       0.000000
     26 C16         47.4540    18.6230    16.4720 c3         1 MOL       0.000000
     27 C17         46.2630    17.7650    16.8580 c          1 MOL       0.000000
     28 O3          45.6400    16.9070    16.2290 o          1 MOL       0.000000
     29 O4          45.8650    18.0310    18.1200 oh         1 MOL       0.000000
     30 H2          48.0460    14.3880    19.7720 h1         1 MOL       0.000000
     31 H3          47.2220    15.2290    21.1080 h1         1 MOL       0.000000
     32 H4          41.0770    12.7710    17.1700 ha         1 MOL       0.000000
     33 H5          50.2760    18.5190    21.3600 ha         1 MOL       0.000000
     34 H6          50.8620    20.8780    21.0760 ha         1 MOL       0.000000
     35 H7          49.3680    20.7720    17.0860 ha         1 MOL       0.000000
     36 H8          47.2710    19.6390    16.7520 h1         1 MOL       0.000000
     37 H9          47.6090    18.5760    15.4140 h1         1 MOL       0.000000
     38 H10         46.3160    18.6770    18.6270 ho         1 MOL       0.000000
@<TRIPOS>BOND
     1     1     2 2   
     2     3     1 1   
     3     3     5 1   
     4     4     3 1   
     5     5    30 1   
     6     5    31 1   
     7     6     7 2   
     8     6     5 1   
     9     8    10 ar  
    10     8     7 1   
    11     9    11 1   
    12     9     8 ar  
    13    10    17 1   
    14    11     6 1   
    15    12    14 ar  
    16    12     9 ar  
    17    13    12 1   
    18    14    15 ar  
    19    14    32 1   
    20    15    16 1   
    21    15    10 ar  
    22    18     1 1   
    23    18    19 ar  
    24    19    33 1   
    25    20    19 ar  
    26    20    34 1   
    27    21    20 ar  
    28    22    24 ar  
    29    22    21 ar  
    30    22    35 1   
    31    23    21 1   
    32    24    18 ar  
    33    25    24 1   
    34    26    27 1   
    35    26    25 1   
    36    26    36 1   
    37    26    37 1   
    38    27    29 1   
    39    28    27 2   
    40    29    38 1   
@<TRIPOS>SUBSTRUCTURE
     1 MOL         1 TEMP              0 ****  ****    0 ROOT
