@<TRIPOS>MOLECULE
MOL
   38    40     1     0     0
SMALL
No Charge or Current Charge


@<TRIPOS>ATOM
      1 C1          47.3720    15.6750    19.9170 c          1 MOL       0.000000
      2 O1          47.5600    15.3860    21.1160 o          1 MOL       0.000000
      3 N1          48.3390    16.3550    19.1750 n          1 MOL       0.000000
      4 H1          48.0760    16.7500    18.2610 hn         1 MOL       0.000000
      5 C2          49.6910    16.5260    19.6410 c3         1 MOL       0.000000
      6 C3          50.1010    17.9680    19.8320 cc         1 MOL       0.000000
      7 N2          51.1610    18.5100    19.2470 nd         1 MOL       0.000000
      8 C4          51.2660    19.8510    19.6250 ca         1 MOL       0.000000
      9 C5          50.2210    20.3010    20.5330 ca         1 MOL       0.000000
     10 C6          52.2920    20.7560    19.1870 ca         1 MOL       0.000000
     11 S1          49.1780    19.0160    20.8560 ss         1 MOL       0.000000
     12 C7          50.2230    21.6600    20.9930 ca         1 MOL       0.000000
     13 F1          49.2570    22.0950    21.8390 f          1 MOL       0.000000
     14 C8          51.2350    22.5540    20.5610 ca         1 MOL       0.000000
     15 C9          52.2640    22.1040    19.6630 ca         1 MOL       0.000000
     16 F2          53.2200    22.9730    19.2640 f          1 MOL       0.000000
     17 F3          53.2540    20.3530    18.3540 f          1 MOL       0.000000
     18 C10         46.0920    15.3050    19.2210 ca         1 MOL       0.000000
     19 C11         45.6220    13.9600    19.3600 ca         1 MOL       0.000000
     20 C12         44.4230    13.5260    18.7340 ca         1 MOL       0.000000
     21 C13         43.6640    14.4560    17.9450 ca         1 MOL       0.000000
     22 C14         44.1000    15.7900    17.7890 ca         1 MOL       0.000000
     23 F4          42.5160    14.0850    17.3320 f          1 MOL       0.000000
     24 C15         45.3100    16.2190    18.4220 ca         1 MOL       0.000000
     25 O2          45.8220    17.5210    18.3220 os         1 MOL       0.000000
     26 C16         46.1070    18.0760    17.0310 c3         1 MOL       0.000000
     27 C17         47.5390    18.5760    17.0210 c          1 MOL       0.000000
     28 O3          48.0290    19.6460    17.3900 oh         1 MOL       0.000000
     29 O4          48.3730    17.6470    16.5110 o          1 MOL       0.000000
     30 H2          50.3510    16.0810    18.9260 h1         1 MOL       0.000000
     31 H3          49.7470    16.0600    20.6020 h1         1 MOL       0.000000
     32 H4          51.2330    23.5310    20.8920 ha         1 MOL       0.000000
     33 H5          46.1660    13.2910    19.9270 ha         1 MOL       0.000000
     34 H6          44.1000    12.5520    18.8450 ha         1 MOL       0.000000
     35 H7          43.5490    16.4530    17.2210 ha         1 MOL       0.000000
     36 H8          45.9830    17.3230    16.2800 h1         1 MOL       0.000000
     37 H9          45.4370    18.8850    16.8260 h1         1 MOL       0.000000
     38 H10         47.4790    20.3140    17.7490 ho         1 MOL       0.000000
@<TRIPOS>BOND
     1     1     2 2   
     2     3     5 1   
     3     3     1 1   
     4     4     3 1   
     5     5     6 1   
     6     5    30 1   
     7     5    31 1   
     8     6    11 1   
     9     7     8 1   
    10     7     6 2   
    11     8     9 ar  
    12     9    11 1   
    13     9    12 ar  
    14    10     8 ar  
    15    10    15 ar  
    16    12    13 1   
    17    14    12 ar  
    18    14    32 1   
    19    15    14 ar  
    20    16    15 1   
    21    17    10 1   
    22    18    19 ar  
    23    18     1 1   
    24    19    33 1   
    25    20    19 ar  
    26    20    34 1   
    27    21    20 ar  
    28    22    21 ar  
    29    22    24 ar  
    30    22    35 1   
    31    23    21 1   
    32    24    18 ar  
    33    25    24 1   
    34    26    25 1   
    35    26    36 1   
    36    26    37 1   
    37    27    26 1   
    38    27    28 1   
    39    28    38 1   
    40    29    27 2   
@<TRIPOS>SUBSTRUCTURE
     1 MOL         1 TEMP              0 ****  ****    0 ROOT
