@<TRIPOS>MOLECULE
MOL
   37    39     1     0     0
SMALL
No Charge or Current Charge


@<TRIPOS>ATOM
      1 C1          16.7960    20.8600     8.6030 c          1 MOL       0.000000
      2 O1          17.9090    20.6560     8.0460 o          1 MOL       0.000000
      3 N1          15.6160    20.4520     7.9760 n          1 MOL       0.000000
      4 H1          15.7000    19.9890     7.0590 hn         1 MOL       0.000000
      5 C2          16.6380    21.5090     9.8970 cc         1 MOL       0.000000
      6 C3          15.3840    21.7010    10.4380 cd         1 MOL       0.000000
      7 C4          14.1660    21.2730     9.7710 cd         1 MOL       0.000000
      8 C5          14.3190    20.6270     8.5040 cc         1 MOL       0.000000
      9 C6          13.1700    20.1180     7.6660 c3         1 MOL       0.000000
     10 C7          11.7490    20.3070     8.3600 c3         1 MOL       0.000000
     11 C8          11.3910    19.1250     9.2840 c2         1 MOL       0.000000
     12 C9           9.9840    22.9020     7.8880 c3         1 MOL       0.000000
     13 C10         10.9730    22.6740     8.9910 c2         1 MOL       0.000000
     14 C11         11.7300    21.6050     9.2010 c2         1 MOL       0.000000
     15 C12         12.7170    21.5000    10.3880 c3         1 MOL       0.000000
     16 C13         12.3220    20.3080    11.3070 c3         1 MOL       0.000000
     17 C14         11.6530    19.1300    10.6220 c2         1 MOL       0.000000
     18 C15         11.3020    17.9860    11.5490 c3         1 MOL       0.000000
     19 N2          12.7100    22.7430    11.2090 n4         1 MOL       0.000000
     20 H2          13.4070    22.7130    11.9420 hn         1 MOL       0.000000
     21 H3          12.8940    23.5660    10.6510 hn         1 MOL       0.000000
     22 H4          11.8160    22.8990    11.6600 hn         1 MOL       0.000000
     23 H5          17.4720    21.8280    10.4140 ha         1 MOL       0.000000
     24 H6          15.3070    22.1680    11.3550 ha         1 MOL       0.000000
     25 H7          13.1670    20.6480     6.7370 hc         1 MOL       0.000000
     26 H8          13.3190    19.0670     7.5310 hc         1 MOL       0.000000
     27 H9          11.0270    20.3580     7.5720 hc         1 MOL       0.000000
     28 H10         10.9340    18.2960     8.8730 ha         1 MOL       0.000000
     29 H11          9.5380    23.8680     8.0030 hc         1 MOL       0.000000
     30 H12          9.2230    22.1510     7.9300 hc         1 MOL       0.000000
     31 H13         10.4850    22.8500     6.9440 hc         1 MOL       0.000000
     32 H14         11.0780    23.4430     9.6710 ha         1 MOL       0.000000
     33 H15         11.6490    20.6780    12.0520 hc         1 MOL       0.000000
     34 H16         13.2430    19.9280    11.6970 hc         1 MOL       0.000000
     35 H17         10.8370    17.2020    10.9880 hc         1 MOL       0.000000
     36 H18         10.6280    18.3330    12.3040 hc         1 MOL       0.000000
     37 H19         12.1930    17.6140    12.0100 hc         1 MOL       0.000000
@<TRIPOS>BOND
     1     1     5 1   
     2     2     1 2   
     3     3     8 1   
     4     3     1 1   
     5     4     3 1   
     6     5     6 2   
     7     5    23 1   
     8     6    24 1   
     9     7    15 1   
    10     7     6 1   
    11     8     7 2   
    12     9    10 1   
    13     9     8 1   
    14     9    25 1   
    15     9    26 1   
    16    10    14 1   
    17    10    11 1   
    18    10    27 1   
    19    11    17 2   
    20    11    28 1   
    21    12    13 1   
    22    12    29 1   
    23    12    30 1   
    24    12    31 1   
    25    13    14 2   
    26    13    32 1   
    27    14    15 1   
    28    15    19 1   
    29    15    16 1   
    30    16    33 1   
    31    16    34 1   
    32    17    16 1   
    33    17    18 1   
    34    18    35 1   
    35    18    36 1   
    36    18    37 1   
    37    19    22 1   
    38    19    20 1   
    39    21    19 1   
@<TRIPOS>SUBSTRUCTURE
     1 MOL         1 TEMP              0 ****  ****    0 ROOT
