@<TRIPOS>MOLECULE
MOL
   37    39     1     0     0
SMALL
No Charge or Current Charge


@<TRIPOS>ATOM
      1 C1          10.0800    18.4950    12.6650 c          1 MOL       0.000000
      2 O1           9.4890    17.5440    13.2420 o          1 MOL       0.000000
      3 N1          10.8640    18.2470    11.5350 n          1 MOL       0.000000
      4 H1          10.9330    17.2730    11.2080 hn         1 MOL       0.000000
      5 C2          10.0060    19.8840    13.0960 cc         1 MOL       0.000000
      6 C3          10.6880    20.8690    12.4110 cd         1 MOL       0.000000
      7 C4          11.5020    20.5940    11.2410 cd         1 MOL       0.000000
      8 C5          11.5690    19.2310    10.8100 cc         1 MOL       0.000000
      9 C6          12.3650    18.7560     9.6170 c3         1 MOL       0.000000
     10 C7          13.0840    19.9370     8.8260 c3         1 MOL       0.000000
     11 C8          12.1640    20.5670     7.7600 c2         1 MOL       0.000000
     12 C9          16.0440    20.8550     9.5100 c3         1 MOL       0.000000
     13 C10         14.7730    21.4240    10.0660 c2         1 MOL       0.000000
     14 C11         13.5280    21.0480     9.8050 c2         1 MOL       0.000000
     15 C12         12.2980    21.7260    10.4540 c3         1 MOL       0.000000
     16 C13         11.3970    22.3630     9.3550 c3         1 MOL       0.000000
     17 C14         11.4000    21.6690     8.0050 c2         1 MOL       0.000000
     18 C15         10.4980    22.3100     6.9720 c3         1 MOL       0.000000
     19 N2          12.7080    22.8010    11.4000 n4         1 MOL       0.000000
     20 H2          13.4800    23.3450    11.0380 hn         1 MOL       0.000000
     21 H3          11.9500    23.4430    11.5930 hn         1 MOL       0.000000
     22 H4          13.0020    22.4310    12.2960 hn         1 MOL       0.000000
     23 H5           9.4390    20.1340    13.9210 ha         1 MOL       0.000000
     24 H6          10.6160    21.8430    12.7450 ha         1 MOL       0.000000
     25 H7          13.1130    18.0720     9.9590 hc         1 MOL       0.000000
     26 H8          11.6760    18.2960     8.9400 hc         1 MOL       0.000000
     27 H9          13.9330    19.5070     8.3360 hc         1 MOL       0.000000
     28 H10         12.1250    20.1370     6.8230 ha         1 MOL       0.000000
     29 H11         16.8800    21.3810     9.9210 hc         1 MOL       0.000000
     30 H12         16.0460    20.9590     8.4450 hc         1 MOL       0.000000
     31 H13         16.1130    19.8190     9.7670 hc         1 MOL       0.000000
     32 H14         14.8800    22.2040    10.7340 ha         1 MOL       0.000000
     33 H15         10.3910    22.3670     9.7190 hc         1 MOL       0.000000
     34 H16         11.8030    23.3370     9.1790 hc         1 MOL       0.000000
     35 H17         10.5600    21.7620     6.0550 hc         1 MOL       0.000000
     36 H18         10.8090    23.3200     6.8050 hc         1 MOL       0.000000
     37 H19          9.4880    22.3010     7.3260 hc         1 MOL       0.000000
@<TRIPOS>BOND
     1     1     5 1   
     2     1     2 2   
     3     3     1 1   
     4     4     3 1   
     5     5    23 1   
     6     6     5 2   
     7     6    24 1   
     8     7     6 1   
     9     8     7 2   
    10     8     3 1   
    11     9     8 1   
    12     9    25 1   
    13     9    26 1   
    14    10     9 1   
    15    10    14 1   
    16    10    27 1   
    17    11    17 2   
    18    11    10 1   
    19    11    28 1   
    20    12    13 1   
    21    12    29 1   
    22    12    30 1   
    23    12    31 1   
    24    13    32 1   
    25    14    13 2   
    26    14    15 1   
    27    15     7 1   
    28    15    19 1   
    29    16    15 1   
    30    16    33 1   
    31    16    34 1   
    32    17    16 1   
    33    18    17 1   
    34    18    35 1   
    35    18    36 1   
    36    18    37 1   
    37    19    21 1   
    38    19    22 1   
    39    20    19 1   
@<TRIPOS>SUBSTRUCTURE
     1 MOL         1 TEMP              0 ****  ****    0 ROOT
