@<TRIPOS>MOLECULE
MOL
   32    33     1     0     0
SMALL
No Charge or Current Charge


@<TRIPOS>ATOM
      1 N1          23.6620    -9.2280    53.4430 n2         1 MOL       0.000000
      2 C1          22.5780   -10.0540    53.1440 c3         1 MOL       0.000000
      3 C2          23.7650    -8.6760    54.7010 ce         1 MOL       0.000000
      4 C3          22.7830    -9.0230    55.7710 ce         1 MOL       0.000000
      5 C4          21.6560    -9.9010    55.3220 c2         1 MOL       0.000000
      6 N2          21.5920   -10.4250    54.0650 nh         1 MOL       0.000000
      7 N3          24.8010    -7.8700    55.0240 nh         1 MOL       0.000000
      8 H1          20.8390   -11.0760    53.8010 hn         1 MOL       0.000000
      9 H2          24.8630    -7.4650    55.9690 hn         1 MOL       0.000000
     10 H3          25.5280    -7.6620    54.3260 hn         1 MOL       0.000000
     11 C5          22.8430    -8.5020    57.1180 ca         1 MOL       0.000000
     12 C6          23.4610    -9.1770    58.1840 ca         1 MOL       0.000000
     13 C7          23.4890    -8.6400    59.4920 ca         1 MOL       0.000000
     14 C8          22.8620    -7.3650    59.7710 ca         1 MOL       0.000000
     15 C9          22.2440    -6.6500    58.7500 ca         1 MOL       0.000000
     16 Cl1         22.9500    -6.8580    61.3510 cl         1 MOL       0.000000
     17 C10         22.2350    -7.2080    57.4360 ca         1 MOL       0.000000
     18 C11         20.6090   -10.2800    56.3340 c3         1 MOL       0.000000
     19 C12         20.7320   -11.5880    57.0830 c3         1 MOL       0.000000
     20 N4          22.4930   -10.6020    51.8550 n3         1 MOL       0.000000
     21 H4          21.7560   -11.2860    51.6340 hn         1 MOL       0.000000
     22 H5          23.1680   -10.3180    51.1300 hn         1 MOL       0.000000
     23 H6          22.4200    -9.1970    53.7650 h3         1 MOL       0.000000
     24 H7          23.9070   -10.0910    58.0080 ha         1 MOL       0.000000
     25 H8          23.9580    -9.1590    60.2510 ha         1 MOL       0.000000
     26 H9          21.8020    -5.7370    58.9380 ha         1 MOL       0.000000
     27 H10         21.7800    -6.6760    56.6770 ha         1 MOL       0.000000
     28 H11         19.6720   -10.3050    55.8170 hc         1 MOL       0.000000
     29 H12         20.7230    -9.5420    57.1000 hc         1 MOL       0.000000
     30 H13         20.6310   -12.4030    56.3970 hc         1 MOL       0.000000
     31 H14         19.9630   -11.6480    57.8240 hc         1 MOL       0.000000
     32 H15         21.6900   -11.6380    57.5580 hc         1 MOL       0.000000
@<TRIPOS>BOND
     1     1     3 2   
     2     2     1 1   
     3     2     6 1   
     4     2    23 1   
     5     3     7 1   
     6     3     4 1   
     7     4    11 1   
     8     5     4 2   
     9     5    18 1   
    10     6     5 1   
    11     7     9 1   
    12     8     6 1   
    13    10     7 1   
    14    11    17 ar  
    15    11    12 ar  
    16    12    13 ar  
    17    12    24 1   
    18    13    14 ar  
    19    13    25 1   
    20    14    16 1   
    21    15    14 ar  
    22    15    26 1   
    23    17    15 ar  
    24    17    27 1   
    25    18    19 1   
    26    18    28 1   
    27    18    29 1   
    28    19    30 1   
    29    19    31 1   
    30    19    32 1   
    31    20     2 1   
    32    21    20 1   
    33    22    20 1   
@<TRIPOS>SUBSTRUCTURE
     1 MOL         1 TEMP              0 ****  ****    0 ROOT
