@<TRIPOS>MOLECULE
MOL
   32    33     1     0     0
SMALL
No Charge or Current Charge


@<TRIPOS>ATOM
      1 N1          26.3380    -9.7110    52.9810 n2         1 MOL       0.000000
      2 C1          25.1920    -9.0200    53.3780 c3         1 MOL       0.000000
      3 C2          27.5360    -9.4520    53.6110 ce         1 MOL       0.000000
      4 C3          27.6040    -8.5130    54.7700 ce         1 MOL       0.000000
      5 C4          26.3140    -7.8190    55.0860 c2         1 MOL       0.000000
      6 N2          25.1510    -8.1040    54.4350 nh         1 MOL       0.000000
      7 N3          28.6650   -10.1020    53.2510 nh         1 MOL       0.000000
      8 H1          24.2650    -7.6580    54.7150 hn         1 MOL       0.000000
      9 H2          29.5530    -9.8960    53.7310 hn         1 MOL       0.000000
     10 H3          28.6380   -10.8020    52.4960 hn         1 MOL       0.000000
     11 C5          28.8190    -8.2120    55.4920 ca         1 MOL       0.000000
     12 C6          29.6920    -7.1700    55.1390 ca         1 MOL       0.000000
     13 C7          30.8790    -6.9120    55.8640 ca         1 MOL       0.000000
     14 C8          31.2340    -7.7380    56.9990 ca         1 MOL       0.000000
     15 C9          30.4000    -8.7780    57.3970 ca         1 MOL       0.000000
     16 Cl1         32.6630    -7.3410    57.7500 cl         1 MOL       0.000000
     17 C10         29.2030    -9.0130    56.6560 ca         1 MOL       0.000000
     18 C11         26.3010    -6.8370    56.2260 c3         1 MOL       0.000000
     19 C12         25.0280    -6.0900    56.5550 c3         1 MOL       0.000000
     20 N4          23.9850    -9.2980    52.7200 n3         1 MOL       0.000000
     21 H4          23.5000   -10.1910    52.8880 hn         1 MOL       0.000000
     22 H5          23.5840    -8.6090    52.0670 hn         1 MOL       0.000000
     23 H6          26.1250    -8.4970    53.3530 h3         1 MOL       0.000000
     24 H7          29.4610    -6.5760    54.3280 ha         1 MOL       0.000000
     25 H8          31.4940    -6.1320    55.5830 ha         1 MOL       0.000000
     26 H9          30.6410    -9.3660    58.2100 ha         1 MOL       0.000000
     27 H10         28.5810    -9.7810    56.9540 ha         1 MOL       0.000000
     28 H11         27.0460    -6.1000    56.0100 hc         1 MOL       0.000000
     29 H12         26.4590    -7.4520    57.0870 hc         1 MOL       0.000000
     30 H13         24.7780    -5.4370    55.7450 hc         1 MOL       0.000000
     31 H14         25.1720    -5.5140    57.4450 hc         1 MOL       0.000000
     32 H15         24.2330    -6.7900    56.7080 hc         1 MOL       0.000000
@<TRIPOS>BOND
     1     1     2 1   
     2     1     3 2   
     3     2     6 1   
     4     2    23 1   
     5     3     4 1   
     6     4     5 2   
     7     4    11 1   
     8     5    18 1   
     9     6     8 1   
    10     6     5 1   
    11     7     3 1   
    12     7     9 1   
    13    10     7 1   
    14    11    17 ar  
    15    12    11 ar  
    16    12    13 ar  
    17    12    24 1   
    18    13    14 ar  
    19    13    25 1   
    20    14    15 ar  
    21    14    16 1   
    22    15    26 1   
    23    17    15 ar  
    24    17    27 1   
    25    18    19 1   
    26    18    28 1   
    27    18    29 1   
    28    19    30 1   
    29    19    31 1   
    30    19    32 1   
    31    20    21 1   
    32    20     2 1   
    33    22    20 1   
@<TRIPOS>SUBSTRUCTURE
     1 MOL         1 TEMP              0 ****  ****    0 ROOT
