@<TRIPOS>MOLECULE
MOL
   48    53     1     0     0
SMALL
No Charge or Current Charge


@<TRIPOS>ATOM
      1 C1          47.4640    15.7250    15.9620 ca         1 MOL       0.000000
      2 C2          48.2810    16.7770    15.4680 ca         1 MOL       0.000000
      3 C3          49.4570    16.5970    14.7580 ca         1 MOL       0.000000
      4 C4          49.8040    15.2510    14.5470 ca         1 MOL       0.000000
      5 C5          50.9480    14.6410    13.8530 cc         1 MOL       0.000000
      6 C6          50.7530    13.3030    13.9680 cd         1 MOL       0.000000
      7 N1          49.6460    13.0430    14.6390 na         1 MOL       0.000000
      8 C7          49.0140    14.1950    15.0240 ca         1 MOL       0.000000
      9 C8          47.8390    14.3820    15.7320 ca         1 MOL       0.000000
     10 C9          51.7170    12.3520    13.3780 c3         1 MOL       0.000000
     11 N2          52.9930    12.9210    12.9790 n          1 MOL       0.000000
     12 C10         53.8920    12.0340    12.5000 c          1 MOL       0.000000
     13 O1          53.6800    10.8530    12.3910 o          1 MOL       0.000000
     14 C11         55.2070    12.5140    12.0770 c3         1 MOL       0.000000
     15 N3          55.3960    13.9540    11.9010 n          1 MOL       0.000000
     16 C12         54.5280    14.8340    12.3830 c          1 MOL       0.000000
     17 O2          54.6330    16.0670    12.2750 o          1 MOL       0.000000
     18 C13         53.3160    14.3460    13.1110 c3         1 MOL       0.000000
     19 C14         52.1060    15.2890    13.1490 c3         1 MOL       0.000000
     20 C15         56.5620    14.4530    11.1950 c3         1 MOL       0.000000
     21 H1          49.2470    12.1130    14.8150 hn         1 MOL       0.000000
     22 C16         50.9210    11.6830    12.2030 ca         1 MOL       0.000000
     23 C17         50.1440    10.5110    12.4180 ca         1 MOL       0.000000
     24 C18         49.4240     9.8840    11.4250 ca         1 MOL       0.000000
     25 C19         49.4840    10.4450    10.1690 ca         1 MOL       0.000000
     26 O3          48.8600    10.0030     9.0400 os         1 MOL       0.000000
     27 C20         50.2140    11.5640     9.9190 ca         1 MOL       0.000000
     28 C21         49.5060    10.7620     8.0240 c3         1 MOL       0.000000
     29 O4          50.1280    11.9470     8.6040 os         1 MOL       0.000000
     30 C22         50.9440    12.2070    10.9210 ca         1 MOL       0.000000
     31 H2          46.6010    15.9400    16.4860 ha         1 MOL       0.000000
     32 H3          47.9760    17.7460    15.6510 ha         1 MOL       0.000000
     33 H4          50.0290    17.3840    14.4140 ha         1 MOL       0.000000
     34 H5          47.2720    13.5890    16.0710 ha         1 MOL       0.000000
     35 H6          52.0460    11.6410    14.1070 h1         1 MOL       0.000000
     36 H7          55.9140    12.1890    12.8110 h1         1 MOL       0.000000
     37 H8          55.3320    12.1090    11.0950 h1         1 MOL       0.000000
     38 H9          53.6770    14.4020    14.1170 h1         1 MOL       0.000000
     39 H10         51.8170    15.5300    12.1470 hc         1 MOL       0.000000
     40 H11         52.3790    16.1760    13.6810 hc         1 MOL       0.000000
     41 H12         57.1620    13.6290    10.8700 h1         1 MOL       0.000000
     42 H13         57.1360    15.0750    11.8490 h1         1 MOL       0.000000
     43 H14         56.2480    15.0230    10.3460 h1         1 MOL       0.000000
     44 H15         50.1180    10.1090    13.3680 ha         1 MOL       0.000000
     45 H16         48.8670     9.0360    11.6130 ha         1 MOL       0.000000
     46 H17         50.2570    10.1610     7.5560 h2         1 MOL       0.000000
     47 H18         48.7810    11.0660     7.2990 h2         1 MOL       0.000000
     48 H19         51.4900    13.0570    10.7100 ha         1 MOL       0.000000
@<TRIPOS>BOND
     1     1    31 1   
     2     2     1 ar  
     3     2    32 1   
     4     3     2 ar  
     5     3    33 1   
     6     4     3 ar  
     7     4     8 ar  
     8     5     6 2   
     9     5     4 1   
    10     6     7 1   
    11     7    21 1   
    12     7     8 1   
    13     8     9 ar  
    14     9     1 ar  
    15     9    34 1   
    16    10     6 1   
    17    10    35 1   
    18    11    18 1   
    19    11    10 1   
    20    12    11 1   
    21    13    12 2   
    22    14    12 1   
    23    14    36 1   
    24    14    37 1   
    25    15    14 1   
    26    15    16 1   
    27    16    18 1   
    28    17    16 2   
    29    18    19 1   
    30    18    38 1   
    31    19     5 1   
    32    19    39 1   
    33    19    40 1   
    34    20    15 1   
    35    20    41 1   
    36    20    42 1   
    37    20    43 1   
    38    22    23 ar  
    39    22    10 1   
    40    23    44 1   
    41    24    23 ar  
    42    24    45 1   
    43    25    24 ar  
    44    26    25 1   
    45    27    25 ar  
    46    27    30 ar  
    47    28    29 1   
    48    28    26 1   
    49    28    46 1   
    50    28    47 1   
    51    29    27 1   
    52    30    22 ar  
    53    30    48 1   
@<TRIPOS>SUBSTRUCTURE
     1 MOL         1 TEMP              0 ****  ****    0 ROOT
