@<TRIPOS>MOLECULE
MOL
   48    53     1     0     0
SMALL
No Charge or Current Charge


@<TRIPOS>ATOM
      1 C1          52.3370     8.4590    17.8480 ca         1 MOL       0.000000
      2 C2          53.5900     9.1190    17.9680 ca         1 MOL       0.000000
      3 C3          53.9720    10.2260    17.2280 ca         1 MOL       0.000000
      4 C4          53.0020    10.6740    16.3140 ca         1 MOL       0.000000
      5 C5          53.0100    11.7940    15.3610 cc         1 MOL       0.000000
      6 C6          51.8000    11.7390    14.7480 cd         1 MOL       0.000000
      7 N1          51.0810    10.7340    15.2120 na         1 MOL       0.000000
      8 C7          51.7590    10.0390    16.1770 ca         1 MOL       0.000000
      9 C8          51.3820     8.9330    16.9200 ca         1 MOL       0.000000
     10 C9          51.4400    12.7280    13.7110 c3         1 MOL       0.000000
     11 N2          52.5430    13.5150    13.1870 n          1 MOL       0.000000
     12 C10         52.2160    14.3710    12.1950 c          1 MOL       0.000000
     13 O1          51.1010    14.5030    11.7600 o          1 MOL       0.000000
     14 C11         53.2630    15.2040    11.6020 c3         1 MOL       0.000000
     15 N3          54.5460    15.3030    12.2960 n          1 MOL       0.000000
     16 C12         54.8840    14.4560    13.2600 c          1 MOL       0.000000
     17 O2          55.9580    14.4810    13.8820 o          1 MOL       0.000000
     18 C13         53.9240    13.3810    13.6610 c3         1 MOL       0.000000
     19 C14         54.0780    12.8130    15.0780 c3         1 MOL       0.000000
     20 C15         55.4930    16.3400    11.9270 c3         1 MOL       0.000000
     21 H1          50.1120    10.5100    14.9530 hn         1 MOL       0.000000
     22 C16         50.3060    13.5830    14.3780 ca         1 MOL       0.000000
     23 C17         48.9910    13.0620    14.5340 ca         1 MOL       0.000000
     24 C18         47.9600    13.7670    15.1150 ca         1 MOL       0.000000
     25 C19         48.2490    15.0390    15.5530 ca         1 MOL       0.000000
     26 O3          47.3940    15.9170    16.1530 os         1 MOL       0.000000
     27 C20         49.4910    15.5760    15.4240 ca         1 MOL       0.000000
     28 C21         48.1320    17.1330    16.1060 c3         1 MOL       0.000000
     29 O4          49.5520    16.8510    15.9300 os         1 MOL       0.000000
     30 C22         50.5430    14.8680    14.8390 ca         1 MOL       0.000000
     31 H2          52.1250     7.6380    18.4360 ha         1 MOL       0.000000
     32 H3          54.2640     8.7470    18.6560 ha         1 MOL       0.000000
     33 H4          54.8910    10.6830    17.3380 ha         1 MOL       0.000000
     34 H5          50.4610     8.4830    16.8030 ha         1 MOL       0.000000
     35 H6          51.1130    12.2410    12.8160 h1         1 MOL       0.000000
     36 H7          52.8700    16.1960    11.5200 h1         1 MOL       0.000000
     37 H8          53.4990    14.7150    10.6800 h1         1 MOL       0.000000
     38 H9          54.2890    12.5780    13.0550 h1         1 MOL       0.000000
     39 H10         53.9990    13.6110    15.7870 hc         1 MOL       0.000000
     40 H11         55.0340    12.3400    15.1570 hc         1 MOL       0.000000
     41 H12         55.0790    16.9380    11.1420 h1         1 MOL       0.000000
     42 H13         56.4030    15.8890    11.5900 h1         1 MOL       0.000000
     43 H14         55.6950    16.9570    12.7770 h1         1 MOL       0.000000
     44 H15         48.8000    12.1070    14.1940 ha         1 MOL       0.000000
     45 H16         47.0170    13.3610    15.2170 ha         1 MOL       0.000000
     46 H17         47.7850    17.7260    15.2860 h2         1 MOL       0.000000
     47 H18         47.9920    17.6640    17.0240 h2         1 MOL       0.000000
     48 H19         51.4790    15.2940    14.7520 ha         1 MOL       0.000000
@<TRIPOS>BOND
     1     1     2 ar  
     2     1    31 1   
     3     2    32 1   
     4     3     2 ar  
     5     3    33 1   
     6     4     3 ar  
     7     5     4 1   
     8     6     7 1   
     9     6     5 2   
    10     7     8 1   
    11     8     4 ar  
    12     8     9 ar  
    13     9     1 ar  
    14     9    34 1   
    15    10    22 1   
    16    10     6 1   
    17    10    35 1   
    18    11    18 1   
    19    11    10 1   
    20    12    11 1   
    21    13    12 2   
    22    14    12 1   
    23    14    15 1   
    24    14    36 1   
    25    14    37 1   
    26    15    16 1   
    27    16    18 1   
    28    16    17 2   
    29    18    19 1   
    30    18    38 1   
    31    19     5 1   
    32    19    39 1   
    33    19    40 1   
    34    20    15 1   
    35    20    41 1   
    36    20    42 1   
    37    20    43 1   
    38    21     7 1   
    39    22    23 ar  
    40    22    30 ar  
    41    23    24 ar  
    42    23    44 1   
    43    24    25 ar  
    44    24    45 1   
    45    25    26 1   
    46    27    25 ar  
    47    27    29 1   
    48    28    26 1   
    49    28    46 1   
    50    28    47 1   
    51    29    28 1   
    52    30    27 ar  
    53    30    48 1   
@<TRIPOS>SUBSTRUCTURE
     1 MOL         1 TEMP              0 ****  ****    0 ROOT
