@<TRIPOS>MOLECULE
MOL
   29    30     1     0     0
SMALL
No Charge or Current Charge


@<TRIPOS>ATOM
      1 Cl1         16.9890     1.7340    13.0000 cl         1 MOL       0.000000
      2 C1          17.0180     3.4660    12.9950 cc         1 MOL       0.000000
      3 C2          17.1920     4.1680    14.1420 cd         1 MOL       0.000000
      4 N1          17.2060     5.5360    14.0420 n          1 MOL       0.000000
      5 C3          17.0490     6.1960    12.8730 c          1 MOL       0.000000
      6 O1          17.0630     7.4210    12.8760 o          1 MOL       0.000000
      7 N2          16.8680     5.5080    11.7290 n          1 MOL       0.000000
      8 H1          16.7340     6.0050    10.8370 hn         1 MOL       0.000000
      9 C4          16.8670     4.1680    11.7650 c          1 MOL       0.000000
     10 O2          16.7350     3.5500    10.7340 o          1 MOL       0.000000
     11 C5          17.3250     3.5080    15.5180 c3         1 MOL       0.000000
     12 N3          15.9710     3.5770    16.1480 n3         1 MOL       0.000000
     13 C6          15.2950     4.8310    16.5440 c3         1 MOL       0.000000
     14 C7          13.8460     4.4300    16.9110 c3         1 MOL       0.000000
     15 C8          13.8420     2.8830    17.1030 c3         1 MOL       0.000000
     16 C9          15.1770     2.4980    16.4670 c3         1 MOL       0.000000
     17 N4          15.5260     1.2730    16.2080 n3         1 MOL       0.000000
     18 H2          14.9020     0.4950    16.4630 hn         1 MOL       0.000000
     19 H3          16.4270     1.0810    15.7470 hn         1 MOL       0.000000
     20 H4          17.3370     6.0640    14.8630 hn         1 MOL       0.000000
     21 H5          18.0390     4.0360    16.1150 h1         1 MOL       0.000000
     22 H6          17.6640     2.4970    15.4340 h1         1 MOL       0.000000
     23 H7          15.2950     5.5270    15.7310 h1         1 MOL       0.000000
     24 H8          15.7930     5.3050    17.3640 h1         1 MOL       0.000000
     25 H9          13.1770     4.7050    16.1230 hc         1 MOL       0.000000
     26 H10         13.5230     4.9280    17.8010 hc         1 MOL       0.000000
     27 H11         13.8110     2.6170    18.1390 hc         1 MOL       0.000000
     28 H12         12.9940     2.3910    16.6740 hc         1 MOL       0.000000
     29 H13         15.4880     1.4870    16.6270 h2         1 MOL       0.000000
@<TRIPOS>BOND
     1     2     1 1   
     2     2     3 2   
     3     3    11 1   
     4     4     3 1   
     5     4    20 1   
     6     5     6 2   
     7     5     4 1   
     8     7     9 1   
     9     7     5 1   
    10     8     7 1   
    11     9     2 1   
    12    10     9 2   
    13    11    12 1   
    14    11    21 1   
    15    11    22 1   
    16    12    16 1   
    17    12    13 1   
    18    13    14 1   
    19    13    23 1   
    20    13    24 1   
    21    14    15 1   
    22    14    25 1   
    23    14    26 1   
    24    15    27 1   
    25    15    28 1   
    26    16    15 1   
    27    16    29 1   
    28    17    18 1   
    29    17    16 1   
    30    19    17 1   
@<TRIPOS>SUBSTRUCTURE
     1 MOL         1 TEMP              0 ****  ****    0 ROOT
