@<TRIPOS>MOLECULE
MOL
   29    30     1     0     0
SMALL
No Charge or Current Charge


@<TRIPOS>ATOM
      1 Cl1         15.1040     7.1020    14.1670 cl         1 MOL       0.000000
      2 C1          15.6190     5.4920    14.5430 cc         1 MOL       0.000000
      3 C2          16.4450     4.8080    13.7130 cd         1 MOL       0.000000
      4 N1          16.8050     3.5400    14.0950 n          1 MOL       0.000000
      5 C3          16.3730     2.9580    15.2350 c          1 MOL       0.000000
      6 O1          16.7340     1.8160    15.4930 o          1 MOL       0.000000
      7 N2          15.5470     3.6270    16.0620 n          1 MOL       0.000000
      8 H1          15.2020     3.1830    16.9260 hn         1 MOL       0.000000
      9 C4          15.1790     4.8770    15.7500 c          1 MOL       0.000000
     10 O2          14.4620     5.4880    16.5080 o          1 MOL       0.000000
     11 C5          16.9420     5.3660    12.3770 c3         1 MOL       0.000000
     12 N3          17.6690     4.2500    11.6990 n3         1 MOL       0.000000
     13 C6          19.1410     4.1670    11.5690 c3         1 MOL       0.000000
     14 C7          19.4360     2.7460    11.0320 c3         1 MOL       0.000000
     15 C8          18.0900     2.1830    10.4830 c3         1 MOL       0.000000
     16 C9          17.0850     3.1630    11.0890 c3         1 MOL       0.000000
     17 N4          15.7990     2.9780    11.0750 n3         1 MOL       0.000000
     18 H2          15.4020     2.1500    10.6070 hn         1 MOL       0.000000
     19 H3          15.1750     3.6590    11.5300 hn         1 MOL       0.000000
     20 H4          17.4090     3.0290    13.5090 hn         1 MOL       0.000000
     21 H5          16.1150     5.6860    11.7790 h1         1 MOL       0.000000
     22 H6          17.5800     6.2130    12.5230 h1         1 MOL       0.000000
     23 H7          19.4970     4.9060    10.8820 h1         1 MOL       0.000000
     24 H8          19.6300     4.3450    12.5040 h1         1 MOL       0.000000
     25 H9          20.1630     2.7920    10.2480 hc         1 MOL       0.000000
     26 H10         19.8280     2.1180    11.8040 hc         1 MOL       0.000000
     27 H11         17.9160     1.1830    10.8230 hc         1 MOL       0.000000
     28 H12         18.0470     2.1150     9.4160 hc         1 MOL       0.000000
     29 H13         16.0910     3.0940    10.6990 h2         1 MOL       0.000000
@<TRIPOS>BOND
     1     1     2 1   
     2     2     9 1   
     3     3     4 1   
     4     3     2 2   
     5     4     5 1   
     6     4    20 1   
     7     5     6 2   
     8     5     7 1   
     9     7     8 1   
    10     9     7 1   
    11     9    10 2   
    12    11     3 1   
    13    11    21 1   
    14    11    22 1   
    15    12    11 1   
    16    13    12 1   
    17    13    23 1   
    18    13    24 1   
    19    14    13 1   
    20    14    25 1   
    21    14    26 1   
    22    15    14 1   
    23    15    16 1   
    24    15    27 1   
    25    15    28 1   
    26    16    12 1   
    27    16    29 1   
    28    17    16 1   
    29    17    19 1   
    30    18    17 1   
@<TRIPOS>SUBSTRUCTURE
     1 MOL         1 TEMP              0 ****  ****    0 ROOT
