@<TRIPOS>MOLECULE
MOL
   29    30     1     0     0
SMALL
No Charge or Current Charge


@<TRIPOS>ATOM
      1 Cl1         16.7910     6.9940    12.2510 cl         1 MOL       0.000000
      2 C1          16.8010     5.2630    12.1890 cc         1 MOL       0.000000
      3 C2          16.9530     4.5220    13.3150 cd         1 MOL       0.000000
      4 N1          16.9440     3.1580    13.1700 n          1 MOL       0.000000
      5 C3          16.7990     2.5380    11.9780 c          1 MOL       0.000000
      6 O1          16.8140     1.3140    11.9380 o          1 MOL       0.000000
      7 N2          16.6540     3.2660    10.8540 n          1 MOL       0.000000
      8 H1          16.5570     2.8010     9.9400 hn         1 MOL       0.000000
      9 C4          16.6350     4.6040    10.9380 c          1 MOL       0.000000
     10 O2          16.4740     5.2560     9.9330 o          1 MOL       0.000000
     11 C5          17.1770     5.1350    14.6990 c3         1 MOL       0.000000
     12 N3          16.2100     4.4610    15.6190 n3         1 MOL       0.000000
     13 C6          14.8310     4.9300    15.8730 c3         1 MOL       0.000000
     14 C7          14.1430     3.8000    16.6760 c3         1 MOL       0.000000
     15 C8          15.2790     2.8760    17.2140 c3         1 MOL       0.000000
     16 C9          16.4650     3.3340    16.3680 c3         1 MOL       0.000000
     17 N4          17.6020     2.7050    16.3180 n3         1 MOL       0.000000
     18 H2          17.7510     1.8650    16.8950 hn         1 MOL       0.000000
     19 H3          18.3530     3.0460    15.7020 hn         1 MOL       0.000000
     20 H4          17.0490     2.6020    13.9760 hn         1 MOL       0.000000
     21 H5          16.9900     6.1880    14.6720 h1         1 MOL       0.000000
     22 H6          18.1860     4.9960    15.0270 h1         1 MOL       0.000000
     23 H7          14.3180     5.0960    14.9490 h1         1 MOL       0.000000
     24 H8          14.8220     5.8560    16.4090 h1         1 MOL       0.000000
     25 H9          13.4850     3.2440    16.0410 hc         1 MOL       0.000000
     26 H10         13.5590     4.1990    17.4790 hc         1 MOL       0.000000
     27 H11         15.4560     3.0390    18.2570 hc         1 MOL       0.000000
     28 H12         15.0650     1.8300    17.1380 hc         1 MOL       0.000000
     29 H13         17.4170     2.9550    16.6770 h2         1 MOL       0.000000
@<TRIPOS>BOND
     1     2     1 1   
     2     2     3 2   
     3     3    11 1   
     4     4     3 1   
     5     4    20 1   
     6     5     4 1   
     7     6     5 2   
     8     7     9 1   
     9     7     5 1   
    10     8     7 1   
    11     9     2 1   
    12    10     9 2   
    13    11    12 1   
    14    11    21 1   
    15    11    22 1   
    16    12    13 1   
    17    12    16 1   
    18    13    14 1   
    19    13    23 1   
    20    13    24 1   
    21    14    15 1   
    22    14    25 1   
    23    14    26 1   
    24    15    27 1   
    25    15    28 1   
    26    16    15 1   
    27    16    29 1   
    28    17    16 1   
    29    17    18 1   
    30    19    17 1   
@<TRIPOS>SUBSTRUCTURE
     1 MOL         1 TEMP              0 ****  ****    0 ROOT
