@<TRIPOS>MOLECULE
MOL
   59    59     1     0     0
SMALL
No Charge or Current Charge


@<TRIPOS>ATOM
      1 N1          22.8300    14.7240    33.2850 n2         1 MOL       0.000000
      2 N2          25.3000    16.7630    30.7280 na         1 MOL       0.000000
      3 C1          24.4290    16.2440    31.6380 cc         1 MOL       0.000000
      4 N3          23.6990    16.8870    32.7200 nh         1 MOL       0.000000
      5 C2          22.8860    16.1020    33.4890 c2         1 MOL       0.000000
      6 C3          23.5100    14.0590    32.2990 c3         1 MOL       0.000000
      7 C4          24.3280    14.7920    31.4140 cd         1 MOL       0.000000
      8 N4          25.1560    14.5230    30.3690 nd         1 MOL       0.000000
      9 C5          25.7100    15.6990    29.9740 cc         1 MOL       0.000000
     10 N5          22.1710    16.6460    34.5220 nh         1 MOL       0.000000
     11 H1          22.4740    16.5530    35.5010 hn         1 MOL       0.000000
     12 C6          20.9510    17.3670    34.1560 c1         1 MOL       0.000000
     13 H2          20.3900    17.5090    35.0970 ha         1 MOL       0.000000
     14 C7          19.8810    16.5210    33.4340 c3         1 MOL       0.000000
     15 C8          20.1810    16.2920    31.9310 c3         1 MOL       0.000000
     16 H3          20.4740    15.2450    31.7490 hc         1 MOL       0.000000
     17 H4          19.3080    16.5060    31.2950 hc         1 MOL       0.000000
     18 H5          21.0170    16.9290    31.5980 hc         1 MOL       0.000000
     19 C9          18.4370    16.8680    33.7720 c3         1 MOL       0.000000
     20 H6          17.9180    15.9850    34.1870 hc         1 MOL       0.000000
     21 H7          18.3740    17.6470    34.5490 hc         1 MOL       0.000000
     22 H8          17.8580    17.1990    32.8950 hc         1 MOL       0.000000
     23 C10         21.1510    18.8080    33.6530 c3         1 MOL       0.000000
     24 O1          22.3280    19.3010    34.2360 oh         1 MOL       0.000000
     25 H9          22.6160    20.1650    33.7530 ho         1 MOL       0.000000
     26 N6          23.4190    12.6960    32.1220 nh         1 MOL       0.000000
     27 H10         22.9270    12.3530    31.2850 hn         1 MOL       0.000000
     28 C11         23.9350    11.7690    32.9790 ca         1 MOL       0.000000
     29 C12         23.0640    11.0060    33.7830 ca         1 MOL       0.000000
     30 C13         23.5690    10.0920    34.6960 ca         1 MOL       0.000000
     31 C14         24.9620     9.9390    34.8280 ca         1 MOL       0.000000
     32 C15         25.8760    10.7740    33.9990 ca         1 MOL       0.000000
     33 Cl1         27.3910    10.6740    34.1150 cl         1 MOL       0.000000
     34 C16         25.3060    11.6550    33.0930 ca         1 MOL       0.000000
     35 C17         25.5210     8.9670    35.8110 c          1 MOL       0.000000
     36 O2          25.5520     7.7560    35.5320 o          1 MOL       0.000000
     37 O3          25.9470     9.3630    36.9070 oh         1 MOL       0.000000
     38 C18         25.6960    18.1670    30.4490 c3         1 MOL       0.000000
     39 C19         26.9370    18.0790    29.5800 c3         1 MOL       0.000000
     40 C20         24.6680    19.0200    29.7170 c3         1 MOL       0.000000
     41 H11         23.7870    17.8520    32.8920 hn         1 MOL       0.000000
     42 H12         23.0760    13.6730    33.1970 h2         1 MOL       0.000000
     43 H13         26.3720    15.7810    29.1860 h5         1 MOL       0.000000
     44 H14         20.5010    17.3240    33.7750 hc         1 MOL       0.000000
     45 H15         20.0780    15.5870    33.9170 hc         1 MOL       0.000000
     46 H16         20.8530    17.9110    34.1550 h1         1 MOL       0.000000
     47 H17         21.3270    18.5960    32.6190 h1         1 MOL       0.000000
     48 H18         20.3760    19.5400    33.7400 h1         1 MOL       0.000000
     49 H19         22.0430    11.1280    33.6920 ha         1 MOL       0.000000
     50 H20         22.9270     9.5280    35.2750 ha         1 MOL       0.000000
     51 H21         25.9160    12.2340    32.4950 ha         1 MOL       0.000000
     52 H22         25.9230    10.2760    37.1170 ho         1 MOL       0.000000
     53 H23         25.8310    18.6510    31.3940 h1         1 MOL       0.000000
     54 H24         26.6960    17.5810    28.6640 hc         1 MOL       0.000000
     55 H25         27.6960    17.5290    30.0960 hc         1 MOL       0.000000
     56 H26         27.2940    19.0650    29.3670 hc         1 MOL       0.000000
     57 H27         24.4760    18.5980    28.7530 hc         1 MOL       0.000000
     58 H28         25.0460    20.0140    29.6020 hc         1 MOL       0.000000
     59 H29         23.7600    19.0470    30.2820 hc         1 MOL       0.000000
@<TRIPOS>BOND
     1     1     5 2   
     2     2     3 1   
     3     3     4 1   
     4     4     5 1   
     5     4    41 1   
     6     5    10 1   
     7     6     1 1   
     8     6    42 1   
     9     7     3 2   
    10     7     6 1   
    11     8     7 1   
    12     9     8 2   
    13     9     2 1   
    14     9    43 1   
    15    10    11 1   
    16    12    10 3   
    17    12    13 1   
    18    14    19 1   
    19    14    44 1   
    20    14    45 1   
    21    15    14 1   
    22    16    15 1   
    23    17    15 1   
    24    18    15 1   
    25    19    20 1   
    26    19    21 1   
    27    22    19 1   
    28    23    24 1   
    29    23    46 1   
    30    23    47 1   
    31    23    48 1   
    32    25    24 1   
    33    26     6 1   
    34    26    28 1   
    35    27    26 1   
    36    28    34 ar  
    37    28    29 ar  
    38    29    30 ar  
    39    29    49 1   
    40    30    31 ar  
    41    30    50 1   
    42    31    35 1   
    43    32    33 1   
    44    32    31 ar  
    45    34    32 ar  
    46    34    51 1   
    47    35    37 1   
    48    36    35 2   
    49    37    52 1   
    50    38     2 1   
    51    38    53 1   
    52    39    38 1   
    53    39    54 1   
    54    39    55 1   
    55    39    56 1   
    56    40    38 1   
    57    40    57 1   
    58    40    58 1   
    59    40    59 1   
@<TRIPOS>SUBSTRUCTURE
     1 MOL         1 TEMP              0 ****  ****    0 ROOT
