@<TRIPOS>MOLECULE
MOL
   59    59     1     0     0
SMALL
No Charge or Current Charge


@<TRIPOS>ATOM
      1 N1          21.9290    16.5470    32.0870 n2         1 MOL       0.000000
      2 N2          23.9770    13.0690    32.7980 na         1 MOL       0.000000
      3 C1          23.1980    14.1820    32.7030 cc         1 MOL       0.000000
      4 N3          21.9730    14.5410    33.4000 nh         1 MOL       0.000000
      5 C2          21.3970    15.7410    33.0930 c2         1 MOL       0.000000
      6 C3          23.0650    16.2530    31.3790 c3         1 MOL       0.000000
      7 C4          23.7660    15.0640    31.6680 cd         1 MOL       0.000000
      8 N4          24.8680    14.4170    31.1990 nd         1 MOL       0.000000
      9 C5          24.9780    13.2500    31.8850 cc         1 MOL       0.000000
     10 N5          20.2440    16.1380    33.7160 nh         1 MOL       0.000000
     11 H1          19.4530    15.4940    33.8560 hn         1 MOL       0.000000
     12 C6          20.1990    17.5270    34.1710 c1         1 MOL       0.000000
     13 H2          19.5340    17.5350    35.0530 ha         1 MOL       0.000000
     14 C7          19.3520    18.4770    33.2980 c3         1 MOL       0.000000
     15 C8          18.8680    19.7430    34.0480 c3         1 MOL       0.000000
     16 H3          18.5290    19.4860    35.0660 hc         1 MOL       0.000000
     17 H4          19.6620    20.4990    34.1460 hc         1 MOL       0.000000
     18 H5          18.0130    20.2040    33.5250 hc         1 MOL       0.000000
     19 C9          18.3140    17.7990    32.4130 c3         1 MOL       0.000000
     20 H6          17.7930    18.5480    31.7910 hc         1 MOL       0.000000
     21 H7          18.7780    17.0910    31.7070 hc         1 MOL       0.000000
     22 H8          17.5410    17.2650    32.9890 hc         1 MOL       0.000000
     23 C10         21.5190    18.0920    34.7280 c3         1 MOL       0.000000
     24 O1          21.9490    19.1030    33.8560 oh         1 MOL       0.000000
     25 H9          21.3150    19.1500    33.0450 ho         1 MOL       0.000000
     26 N6          23.5670    17.0820    30.4000 nh         1 MOL       0.000000
     27 H10         23.1950    16.9780    29.4460 hn         1 MOL       0.000000
     28 C11         24.5240    18.0330    30.6090 ca         1 MOL       0.000000
     29 C12         25.0600    18.7310    29.5080 ca         1 MOL       0.000000
     30 C13         26.0670    19.6670    29.6910 ca         1 MOL       0.000000
     31 C14         26.5640    19.9070    30.9870 ca         1 MOL       0.000000
     32 C15         26.0150    19.1400    32.1400 ca         1 MOL       0.000000
     33 Cl1         26.5300    19.3370    33.5590 cl         1 MOL       0.000000
     34 C16         24.9980    18.2340    31.8890 ca         1 MOL       0.000000
     35 C17         27.6530    20.9050    31.2000 c          1 MOL       0.000000
     36 O2          27.4020    21.9790    31.7710 oh         1 MOL       0.000000
     37 O3          28.8030    20.6670    30.8020 o          1 MOL       0.000000
     38 C18         23.9160    11.9140    33.7290 c3         1 MOL       0.000000
     39 C19         22.8080    11.0190    33.2050 c3         1 MOL       0.000000
     40 C20         25.1840    11.0770    33.8420 c3         1 MOL       0.000000
     41 H11         21.5730    13.9400    34.0700 hn         1 MOL       0.000000
     42 H12         22.2650    16.9120    31.1120 h2         1 MOL       0.000000
     43 H13         25.7390    12.5700    31.7330 h5         1 MOL       0.000000
     44 H14         20.1790    18.7570    32.6800 hc         1 MOL       0.000000
     45 H15         19.6000    17.7640    34.0570 hc         1 MOL       0.000000
     46 H16         22.1770    18.0430    35.5700 h1         1 MOL       0.000000
     47 H17         21.5250    17.1530    34.2160 h1         1 MOL       0.000000
     48 H18         20.5260    18.3090    35.0630 h1         1 MOL       0.000000
     49 H19         24.7010    18.5440    28.5590 ha         1 MOL       0.000000
     50 H20         26.4490    20.1840    28.8840 ha         1 MOL       0.000000
     51 H21         24.5880    17.7010    32.6720 ha         1 MOL       0.000000
     52 H22         26.5330    22.1580    32.0710 ho         1 MOL       0.000000
     53 H23         23.7590    12.3090    34.7110 h1         1 MOL       0.000000
     54 H24         23.0590    10.6780    32.2220 hc         1 MOL       0.000000
     55 H25         21.8920    11.5700    33.1680 hc         1 MOL       0.000000
     56 H26         22.6920    10.1770    33.8550 hc         1 MOL       0.000000
     57 H27         25.4110    10.6430    32.8910 hc         1 MOL       0.000000
     58 H28         25.0350    10.3000    34.5620 hc         1 MOL       0.000000
     59 H29         25.9960    11.7000    34.1520 hc         1 MOL       0.000000
@<TRIPOS>BOND
     1     1     5 2   
     2     2    38 1   
     3     3     2 1   
     4     3     4 1   
     5     4    41 1   
     6     5     4 1   
     7     5    10 1   
     8     6     7 1   
     9     6     1 1   
    10     6    42 1   
    11     7     3 2   
    12     8     7 1   
    13     8     9 2   
    14     9     2 1   
    15     9    43 1   
    16    10    11 1   
    17    10    12 3   
    18    12    13 1   
    19    14    15 1   
    20    14    44 1   
    21    14    45 1   
    22    15    17 1   
    23    15    16 1   
    24    18    15 1   
    25    19    22 1   
    26    19    14 1   
    27    20    19 1   
    28    21    19 1   
    29    23    46 1   
    30    23    47 1   
    31    23    48 1   
    32    24    23 1   
    33    25    24 1   
    34    26    28 1   
    35    26     6 1   
    36    27    26 1   
    37    28    34 ar  
    38    29    30 ar  
    39    29    28 ar  
    40    29    49 1   
    41    30    31 ar  
    42    30    50 1   
    43    31    35 1   
    44    31    32 ar  
    45    32    33 1   
    46    34    32 ar  
    47    34    51 1   
    48    35    36 1   
    49    36    52 1   
    50    37    35 2   
    51    38    40 1   
    52    38    53 1   
    53    39    38 1   
    54    39    54 1   
    55    39    55 1   
    56    39    56 1   
    57    40    57 1   
    58    40    58 1   
    59    40    59 1   
@<TRIPOS>SUBSTRUCTURE
     1 MOL         1 TEMP              0 ****  ****    0 ROOT
