@<TRIPOS>MOLECULE
MOL
   25    22     1     0     0
SMALL
No Charge or Current Charge


@<TRIPOS>ATOM
      1 O1          12.1790   -13.1630    22.2120 o          1 MOL       0.000000
      2 C1          11.7810   -12.0500    22.5540 c          1 MOL       0.000000
      3 C2          12.4030   -10.7930    21.9470 c1         1 MOL       0.000000
      4 H1          11.8090   -10.4400    21.0840 ha         1 MOL       0.000000
      5 C3          13.8760   -11.0130    21.5990 c3         1 MOL       0.000000
      6 C4          14.3450    -9.5610    21.4910 c3         1 MOL       0.000000
      7 H2          13.8770    -9.0990    20.6000 hc         1 MOL       0.000000
      8 H3          15.4300    -9.4110    21.3880 hc         1 MOL       0.000000
      9 C5          13.7730    -8.9540    22.7760 c3         1 MOL       0.000000
     10 H4          13.5600    -7.8760    22.7490 h1         1 MOL       0.000000
     11 H5          14.4270    -9.1540    23.6420 h1         1 MOL       0.000000
     12 N1          12.5100    -9.7110    22.9380 n          1 MOL       0.000000
     13 C6          11.5220    -9.5920    23.9250 c          1 MOL       0.000000
     14 O2          11.6080    -8.7050    24.7730 o          1 MOL       0.000000
     15 C7          10.3450   -10.5710    23.9730 c1         1 MOL       0.000000
     16 H6           9.5340   -10.1850    23.3310 ha         1 MOL       0.000000
     17 H7          10.0080   -10.6010    25.0170 ha         1 MOL       0.000000
     18 N2          10.7710   -11.9150    23.5160 n          1 MOL       0.000000
     19 H8          10.3230   -12.7550    23.9090 hn         1 MOL       0.000000
     20 H9          12.1960   -11.2070    22.1280 h5         1 MOL       0.000000
     21 H10         14.2150   -11.5620    20.7450 hc         1 MOL       0.000000
     22 H11         12.8070   -11.0400    21.6390 hc         1 MOL       0.000000
     23 H12         14.2780   -11.4520    22.4880 hc         1 MOL       0.000000
     24 H13         10.7250   -10.2470    23.9400 h5         1 MOL       0.000000
     25 H14         10.4910   -11.0200    23.8150 hn         1 MOL       0.000000
@<TRIPOS>BOND
     1     1     2 2   
     2     2    18 1   
     3     2    20 1   
     4     3    12 1   
     5     4     3 1   
     6     5    21 1   
     7     5    22 1   
     8     5    23 1   
     9     6     5 1   
    10     6     9 1   
    11     7     6 1   
    12     8     6 1   
    13     9    12 1   
    14     9    11 1   
    15    10     9 1   
    16    12    13 1   
    17    13    14 2   
    18    13    24 1   
    19    15    17 1   
    20    16    15 1   
    21    18    19 1   
    22    18    25 1   
@<TRIPOS>SUBSTRUCTURE
     1 MOL         1 TEMP              0 ****  ****    0 ROOT
