@<TRIPOS>MOLECULE
MOL
   25    22     1     0     0
SMALL
No Charge or Current Charge


@<TRIPOS>ATOM
      1 O1          11.8360    -9.7270    22.8840 o          1 MOL       0.000000
      2 C1          12.3710   -10.8350    22.8900 c          1 MOL       0.000000
      3 C2          13.8280   -10.9860    22.4540 c1         1 MOL       0.000000
      4 H1          14.5040   -10.9570    23.3290 ha         1 MOL       0.000000
      5 C3          14.2000    -9.9530    21.3880 c3         1 MOL       0.000000
      6 C4          15.4590   -10.6060    20.8130 c3         1 MOL       0.000000
      7 H2          16.2600   -10.5720    21.5750 hc         1 MOL       0.000000
      8 H3          15.8710   -10.1410    19.9040 hc         1 MOL       0.000000
      9 C5          14.9880   -12.0460    20.5890 c3         1 MOL       0.000000
     10 H4          15.7670   -12.8200    20.6200 h1         1 MOL       0.000000
     11 H5          14.4380   -12.1480    19.6380 h1         1 MOL       0.000000
     12 N1          14.0440   -12.2390    21.7150 n          1 MOL       0.000000
     13 C6          13.3030   -13.3740    22.0700 c          1 MOL       0.000000
     14 O2          13.4580   -14.4250    21.4490 o          1 MOL       0.000000
     15 C7          12.2840   -13.3150    23.2120 c1         1 MOL       0.000000
     16 H6          12.7990   -13.5430    24.1610 ha         1 MOL       0.000000
     17 H7          11.5360   -14.0910    23.0010 ha         1 MOL       0.000000
     18 N2          11.6530   -11.9760    23.2730 n          1 MOL       0.000000
     19 H8          10.6810   -11.8820    23.5990 hn         1 MOL       0.000000
     20 H9          13.3600   -10.9250    22.6100 h5         1 MOL       0.000000
     21 H10         13.4180    -9.9810    20.6580 hc         1 MOL       0.000000
     22 H11         14.4110    -8.9360    21.6450 hc         1 MOL       0.000000
     23 H12         13.8900   -10.4850    22.2630 hc         1 MOL       0.000000
     24 H13         12.6290   -13.3290    22.8500 h5         1 MOL       0.000000
     25 H14         12.0760   -12.8640    23.2300 hn         1 MOL       0.000000
@<TRIPOS>BOND
     1     1     2 2   
     2     2    18 1   
     3     2    20 1   
     4     3     4 1   
     5     5    21 1   
     6     5    22 1   
     7     5    23 1   
     8     6     5 1   
     9     6     7 1   
    10     8     6 1   
    11     9    10 1   
    12     9     6 1   
    13     9    12 1   
    14    11     9 1   
    15    12    13 1   
    16    12     3 1   
    17    13    24 1   
    18    14    13 2   
    19    15    16 1   
    20    17    15 1   
    21    18    19 1   
    22    18    25 1   
@<TRIPOS>SUBSTRUCTURE
     1 MOL         1 TEMP              0 ****  ****    0 ROOT
