@<TRIPOS>MOLECULE
MOL
   25    22     1     0     0
SMALL
No Charge or Current Charge


@<TRIPOS>ATOM
      1 O1          13.8230   -10.7340    20.8490 o          1 MOL       0.000000
      2 C1          13.6600   -10.1830    21.9370 c          1 MOL       0.000000
      3 C2          12.8580   -10.8760    23.0370 c1         1 MOL       0.000000
      4 H1          13.5280   -11.4260    23.7230 ha         1 MOL       0.000000
      5 C3          11.7600   -11.7640    22.4490 c3         1 MOL       0.000000
      6 C4          10.8600   -11.9250    23.6770 c3         1 MOL       0.000000
      7 H2          11.3900   -12.5380    24.4310 hc         1 MOL       0.000000
      8 H3           9.8890   -12.4120    23.5030 hc         1 MOL       0.000000
      9 C5          10.7290   -10.4760    24.1560 c3         1 MOL       0.000000
     10 H4          10.5360   -10.3360    25.2290 h1         1 MOL       0.000000
     11 H5           9.9500    -9.9340    23.5930 h1         1 MOL       0.000000
     12 N1          12.0550    -9.9150    23.8080 n          1 MOL       0.000000
     13 C6          12.5600    -8.6250    24.0230 c          1 MOL       0.000000
     14 O2          11.8920    -7.8030    24.6500 o          1 MOL       0.000000
     15 C7          13.9280    -8.2200    23.4670 c1         1 MOL       0.000000
     16 H6          14.7050    -8.4810    24.2050 ha         1 MOL       0.000000
     17 H7          13.8980    -7.1310    23.3300 ha         1 MOL       0.000000
     18 N2          14.1860    -8.9060    22.1790 n          1 MOL       0.000000
     19 H8          14.7550    -8.4420    21.4570 hn         1 MOL       0.000000
     20 H9          13.1300   -10.6660    22.6800 h5         1 MOL       0.000000
     21 H10         11.2570   -11.1720    21.7130 hc         1 MOL       0.000000
     22 H11         11.9820   -12.7280    22.0410 hc         1 MOL       0.000000
     23 H12         12.6700   -11.2790    22.7350 hc         1 MOL       0.000000
     24 H13         13.4890    -8.3650    23.6570 h5         1 MOL       0.000000
     25 H14         14.0120    -8.4540    23.0360 hn         1 MOL       0.000000
@<TRIPOS>BOND
     1     1     2 2   
     2     2    18 1   
     3     2    20 1   
     4     3     4 1   
     5     3    12 1   
     6     5     6 1   
     7     5    21 1   
     8     5    22 1   
     9     5    23 1   
    10     6     9 1   
    11     6     7 1   
    12     8     6 1   
    13     9    10 1   
    14    11     9 1   
    15    12    13 1   
    16    12     9 1   
    17    13    14 2   
    18    13    24 1   
    19    15    16 1   
    20    17    15 1   
    21    18    25 1   
    22    19    18 1   
@<TRIPOS>SUBSTRUCTURE
     1 MOL         1 TEMP              0 ****  ****    0 ROOT
