@<TRIPOS>MOLECULE
MOL
   44    44     1     0     0
SMALL
No Charge or Current Charge


@<TRIPOS>ATOM
      1 O1          15.1870    12.3030    37.9040 o          1 MOL       0.000000
      2 C1          14.0600    12.3210    38.3400 c          1 MOL       0.000000
      3 N1          12.8360    12.6820    37.7660 n          1 MOL       0.000000
      4 C2          12.5140    13.5280    36.6550 c1         1 MOL       0.000000
      5 H1          13.4190    14.0610    36.3220 ha         1 MOL       0.000000
      6 C3          11.5120    14.5350    37.2620 c3         1 MOL       0.000000
      7 C4          10.0180    14.1840    37.0260 c3         1 MOL       0.000000
      8 C5          11.7060    15.9730    36.7370 c3         1 MOL       0.000000
      9 S1          11.8830    14.5200    39.0530 s4         1 MOL       0.000000
     10 C6          12.1970    12.7360    39.0660 cy         1 MOL       0.000000
     11 C7          13.4390    12.0800    39.6980 cy         1 MOL       0.000000
     12 O2          13.2420    15.0400    39.3320 o          1 MOL       0.000000
     13 N2          14.1480    12.7530    40.7500 n          1 MOL       0.000000
     14 C8          15.1360    12.1700    41.4710 c          1 MOL       0.000000
     15 O3          15.5860    11.0280    41.4180 o          1 MOL       0.000000
     16 H2          13.8820    13.7270    40.8540 hn         1 MOL       0.000000
     17 C9          15.7460    13.0910    42.5280 c3         1 MOL       0.000000
     18 C10         17.1480    13.5010    42.0960 ca         1 MOL       0.000000
     19 C11         17.4320    13.9230    40.8060 ca         1 MOL       0.000000
     20 C12         18.7050    14.4100    40.4910 ca         1 MOL       0.000000
     21 C13         19.7200    14.3910    41.4590 ca         1 MOL       0.000000
     22 C14         19.4610    13.9320    42.7550 ca         1 MOL       0.000000
     23 C15         18.1640    13.5170    43.0550 ca         1 MOL       0.000000
     24 C16         11.9630    12.7570    35.4460 c          1 MOL       0.000000
     25 O4          11.7210    13.2380    34.3820 o          1 MOL       0.000000
     26 O5          11.8340    11.4400    35.7740 oh         1 MOL       0.000000
     27 H3          12.1510    13.8310    36.7710 h1         1 MOL       0.000000
     28 H4           9.4000    14.9000    37.5260 hc         1 MOL       0.000000
     29 H5           9.8160    13.2070    37.4130 hc         1 MOL       0.000000
     30 H6           9.8090    14.2030    35.9770 hc         1 MOL       0.000000
     31 H7          11.0470    16.6350    37.2580 hc         1 MOL       0.000000
     32 H8          11.4870    16.0030    35.6900 hc         1 MOL       0.000000
     33 H9          12.7190    16.2780    36.8990 hc         1 MOL       0.000000
     34 H10         11.3080    12.3040    39.4750 h2         1 MOL       0.000000
     35 H11         13.3520    11.1440    40.2090 h1         1 MOL       0.000000
     36 H12         15.7980    12.5750    43.4640 hc         1 MOL       0.000000
     37 H13         15.1360    13.9640    42.6350 hc         1 MOL       0.000000
     38 H14         16.7030    13.8780    40.0770 ha         1 MOL       0.000000
     39 H15         18.8970    14.7830    39.5480 ha         1 MOL       0.000000
     40 H16         20.6670    14.7190    41.2130 ha         1 MOL       0.000000
     41 H17         20.2070    13.9020    43.4670 ha         1 MOL       0.000000
     42 H18         17.9480    13.2120    44.0170 ha         1 MOL       0.000000
     43 H19         12.3000    13.3940    36.1840 h5         1 MOL       0.000000
     44 H20         12.0480    11.1490    36.6390 ho         1 MOL       0.000000
@<TRIPOS>BOND
     1     1     2 2   
     2     2    11 1   
     3     3     2 1   
     4     3    10 1   
     5     4     3 3   
     6     5     4 1   
     7     6     9 1   
     8     6    27 1   
     9     7     6 1   
    10     7    28 1   
    11     7    29 1   
    12     7    30 1   
    13     8     6 1   
    14     8    31 1   
    15     8    32 1   
    16     8    33 1   
    17     9    10 1   
    18     9    12 2   
    19    10    11 1   
    20    10    34 1   
    21    11    13 1   
    22    11    35 1   
    23    13    16 1   
    24    13    14 1   
    25    14    17 1   
    26    15    14 2   
    27    17    36 1   
    28    17    37 1   
    29    18    17 1   
    30    18    23 ar  
    31    19    18 ar  
    32    19    38 1   
    33    20    19 ar  
    34    20    21 ar  
    35    20    39 1   
    36    21    22 ar  
    37    21    40 1   
    38    22    23 ar  
    39    22    41 1   
    40    23    42 1   
    41    24    26 1   
    42    24    43 1   
    43    25    24 2   
    44    26    44 1   
@<TRIPOS>SUBSTRUCTURE
     1 MOL         1 TEMP              0 ****  ****    0 ROOT
