@<TRIPOS>MOLECULE
MOL
   44    44     1     0     0
SMALL
No Charge or Current Charge


@<TRIPOS>ATOM
      1 O1          17.2900    12.0860    38.4520 o          1 MOL       0.000000
      2 C1          16.2590    11.8780    39.0470 c          1 MOL       0.000000
      3 N1          14.9220    11.8560    38.6330 n          1 MOL       0.000000
      4 C2          14.2580    12.4560    37.5140 c1         1 MOL       0.000000
      5 H1          14.9460    13.1520    37.0060 ha         1 MOL       0.000000
      6 C3          13.1110    13.2520    38.1750 c3         1 MOL       0.000000
      7 C4          11.7420    12.5190    38.1940 c3         1 MOL       0.000000
      8 C5          12.8590    14.6190    37.5050 c3         1 MOL       0.000000
      9 S1          13.6880    13.5440    39.8850 s4         1 MOL       0.000000
     10 C6          14.4550    11.9080    40.0030 cy         1 MOL       0.000000
     11 C7          15.8920    11.6580    40.4980 cy         1 MOL       0.000000
     12 O2          14.8890    14.4120    39.9140 o          1 MOL       0.000000
     13 N2          16.5240    12.6060    41.3720 n          1 MOL       0.000000
     14 C8          17.6780    12.3510    42.0340 c          1 MOL       0.000000
     15 O3          18.3650    11.3330    42.0640 o          1 MOL       0.000000
     16 H2          16.0570    13.5080    41.3910 hn         1 MOL       0.000000
     17 C9          18.1590    13.5190    42.8950 c3         1 MOL       0.000000
     18 C10         19.3550    14.1840    42.2260 ca         1 MOL       0.000000
     19 C11         20.5360    14.4400    42.9070 ca         1 MOL       0.000000
     20 C12         21.6490    14.9350    42.2190 ca         1 MOL       0.000000
     21 C13         21.5440    15.2550    40.8570 ca         1 MOL       0.000000
     22 C14         20.3480    15.0400    40.1640 ca         1 MOL       0.000000
     23 C15         19.2780    14.4820    40.8640 ca         1 MOL       0.000000
     24 C16         13.7840    11.4340    36.4700 c          1 MOL       0.000000
     25 O4          13.4040    11.7040    35.3730 o          1 MOL       0.000000
     26 O5          13.9030    10.1770    36.9860 oh         1 MOL       0.000000
     27 H3          13.8470    12.6730    37.6570 h1         1 MOL       0.000000
     28 H4          11.0250    13.1170    38.7170 hc         1 MOL       0.000000
     29 H5          11.8490    11.5760    38.6890 hc         1 MOL       0.000000
     30 H6          11.4090    12.3590    37.1900 hc         1 MOL       0.000000
     31 H7          12.1180    15.1570    38.0590 hc         1 MOL       0.000000
     32 H8          12.5150    14.4670    36.5030 hc         1 MOL       0.000000
     33 H9          13.7690    15.1810    37.4880 hc         1 MOL       0.000000
     34 H10         13.7650    11.3230    40.5750 h2         1 MOL       0.000000
     35 H11         16.1140    10.7980    41.0950 h1         1 MOL       0.000000
     36 H12         18.4460    13.1560    43.8600 hc         1 MOL       0.000000
     37 H13         17.3690    14.2320    43.0030 hc         1 MOL       0.000000
     38 H14         20.5940    14.2650    43.9220 ha         1 MOL       0.000000
     39 H15         22.5460    15.0650    42.7130 ha         1 MOL       0.000000
     40 H16         22.3570    15.6530    40.3610 ha         1 MOL       0.000000
     41 H17         20.2600    15.2870    39.1660 ha         1 MOL       0.000000
     42 H18         18.4010    14.2830    40.3580 ha         1 MOL       0.000000
     43 H19         14.0460    12.2210    37.0840 h5         1 MOL       0.000000
     44 H20         14.2120    10.0580    37.8630 ho         1 MOL       0.000000
@<TRIPOS>BOND
     1     1     2 2   
     2     2    11 1   
     3     3     2 1   
     4     3    10 1   
     5     4     3 3   
     6     5     4 1   
     7     6     7 1   
     8     6     9 1   
     9     6    27 1   
    10     7    28 1   
    11     7    29 1   
    12     7    30 1   
    13     8     6 1   
    14     8    31 1   
    15     8    32 1   
    16     8    33 1   
    17     9    12 2   
    18     9    10 1   
    19    10    11 1   
    20    10    34 1   
    21    11    13 1   
    22    11    35 1   
    23    13    16 1   
    24    13    14 1   
    25    14    15 2   
    26    14    17 1   
    27    17    36 1   
    28    17    37 1   
    29    18    17 1   
    30    18    19 ar  
    31    19    38 1   
    32    20    19 ar  
    33    20    39 1   
    34    21    20 ar  
    35    21    40 1   
    36    22    21 ar  
    37    22    23 ar  
    38    22    41 1   
    39    23    18 ar  
    40    23    42 1   
    41    24    26 1   
    42    24    43 1   
    43    25    24 2   
    44    26    44 1   
@<TRIPOS>SUBSTRUCTURE
     1 MOL         1 TEMP              0 ****  ****    0 ROOT
