@<TRIPOS>MOLECULE
MOL
   57    60     1     0     0
SMALL
No Charge or Current Charge


@<TRIPOS>ATOM
      1 C1          70.3400    42.3770    27.0290 c2         1 MOL       0.000000
      2 C2          71.1250    42.5040    25.9660 ce         1 MOL       0.000000
      3 C3          71.5870    43.8800    25.5930 c          1 MOL       0.000000
      4 C4          71.0440    45.0460    26.3640 ce         1 MOL       0.000000
      5 C5          70.2540    44.8410    27.4150 c2         1 MOL       0.000000
      6 C6          69.7410    46.0580    28.1260 c3         1 MOL       0.000000
      7 C7          68.2200    45.9840    28.2280 c3         1 MOL       0.000000
      8 C8          67.7160    44.6320    28.7220 c3         1 MOL       0.000000
      9 C9          68.3200    43.4290    27.9960 c3         1 MOL       0.000000
     10 C10         69.8470    43.4840    27.9180 c3         1 MOL       0.000000
     11 C11         67.7130    42.0750    28.3600 c3         1 MOL       0.000000
     12 C12         66.2020    42.0610    28.5740 c3         1 MOL       0.000000
     13 C13         65.7260    43.2200    29.4490 c3         1 MOL       0.000000
     14 C14         66.1960    44.5290    28.8140 c3         1 MOL       0.000000
     15 C15         65.3670    45.6310    29.4670 c3         1 MOL       0.000000
     16 C16         64.0330    44.9530    29.7620 c3         1 MOL       0.000000
     17 C17         64.2200    43.4780    29.4130 c3         1 MOL       0.000000
     18 C18         66.1980    43.0210    30.8880 c3         1 MOL       0.000000
     19 C19         70.5420    43.2630    29.2590 c3         1 MOL       0.000000
     20 C20         62.8870    45.6720    29.0580 c3         1 MOL       0.000000
     21 F1          67.8980    43.5750    26.7080 f          1 MOL       0.000000
     22 O1          72.3930    44.0440    24.6790 o          1 MOL       0.000000
     23 C21         63.4100    42.5470    30.3020 c          1 MOL       0.000000
     24 O2          63.0370    42.9170    31.4130 o          1 MOL       0.000000
     25 C22         63.0400    41.1340    29.8860 c3         1 MOL       0.000000
     26 O3          63.8820    40.1990    30.5420 oh         1 MOL       0.000000
     27 H1          63.5920    40.1070    31.5270 ho         1 MOL       0.000000
     28 O4          63.7340    43.3030    28.0890 oh         1 MOL       0.000000
     29 H2          62.8650    42.7520    28.1130 ho         1 MOL       0.000000
     30 O5          68.2900    41.5970    29.5660 oh         1 MOL       0.000000
     31 H3          69.0440    40.9300    29.3450 ho         1 MOL       0.000000
     32 H4          70.0370    41.4200    27.2700 ha         1 MOL       0.000000
     33 H5          71.4090    41.6800    25.4130 ha         1 MOL       0.000000
     34 H6          71.2830    46.0090    26.0790 ha         1 MOL       0.000000
     35 H7          70.0200    46.9340    27.5790 hc         1 MOL       0.000000
     36 H8          70.1630    46.1020    29.1080 hc         1 MOL       0.000000
     37 H9          67.8050    46.1680    27.2590 hc         1 MOL       0.000000
     38 H10         67.9130    46.7180    28.9430 hc         1 MOL       0.000000
     39 H11         68.0840    44.5880    29.7260 hc         1 MOL       0.000000
     40 H12         67.9240    41.4630    27.5080 h1         1 MOL       0.000000
     41 H13         65.9300    41.1400    29.0460 hc         1 MOL       0.000000
     42 H14         65.7360    42.1630    27.6160 hc         1 MOL       0.000000
     43 H15         66.0020    44.6180    27.7660 hc         1 MOL       0.000000
     44 H16         65.2360    46.4570    28.7990 hc         1 MOL       0.000000
     45 H17         65.8300    46.0340    30.3430 hc         1 MOL       0.000000
     46 H18         63.7470    45.0110    30.7910 hc         1 MOL       0.000000
     47 H19         67.2530    42.8420    30.8960 hc         1 MOL       0.000000
     48 H20         65.6910    42.1820    31.3170 hc         1 MOL       0.000000
     49 H21         65.9810    43.9000    31.4590 hc         1 MOL       0.000000
     50 H22         71.6020    43.3160    29.1240 hc         1 MOL       0.000000
     51 H23         70.2790    42.3000    29.6430 hc         1 MOL       0.000000
     52 H24         70.2320    44.0190    29.9500 hc         1 MOL       0.000000
     53 H25         63.0640    45.6780    28.0030 hc         1 MOL       0.000000
     54 H26         62.8250    46.6790    29.4150 hc         1 MOL       0.000000
     55 H27         61.9680    45.1640    29.2620 hc         1 MOL       0.000000
     56 H28         63.1570    41.0340    28.8270 h1         1 MOL       0.000000
     57 H29         62.0230    40.9430    30.1580 h1         1 MOL       0.000000
@<TRIPOS>BOND
     1     1    10 1   
     2     1    32 1   
     3     2     1 2   
     4     2    33 1   
     5     3     2 1   
     6     3     4 1   
     7     4     5 2   
     8     4    34 1   
     9     5    10 1   
    10     5     6 1   
    11     6     7 1   
    12     6    35 1   
    13     6    36 1   
    14     7     8 1   
    15     7    37 1   
    16     7    38 1   
    17     8     9 1   
    18     8    39 1   
    19     9    10 1   
    20    10    19 1   
    21    11     9 1   
    22    11    12 1   
    23    11    30 1   
    24    11    40 1   
    25    12    13 1   
    26    12    41 1   
    27    12    42 1   
    28    13    14 1   
    29    13    18 1   
    30    14     8 1   
    31    14    15 1   
    32    14    43 1   
    33    15    16 1   
    34    15    44 1   
    35    15    45 1   
    36    16    17 1   
    37    16    46 1   
    38    17    13 1   
    39    17    23 1   
    40    18    47 1   
    41    18    48 1   
    42    18    49 1   
    43    19    50 1   
    44    19    51 1   
    45    19    52 1   
    46    20    16 1   
    47    20    53 1   
    48    20    54 1   
    49    20    55 1   
    50    21     9 1   
    51    22     3 2   
    52    23    24 2   
    53    25    23 1   
    54    25    26 1   
    55    25    56 1   
    56    25    57 1   
    57    26    27 1   
    58    28    29 1   
    59    28    17 1   
    60    31    30 1   
@<TRIPOS>SUBSTRUCTURE
     1 MOL         1 TEMP              0 ****  ****    0 ROOT
