@<TRIPOS>MOLECULE
MOL
   57    60     1     0     0
SMALL
No Charge or Current Charge


@<TRIPOS>ATOM
      1 C1          63.6560    45.5310    29.2500 c2         1 MOL       0.000000
      2 C2          62.4070    45.5310    28.7970 ce         1 MOL       0.000000
      3 C3          61.6670    44.2290    28.7710 c          1 MOL       0.000000
      4 C4          62.4110    42.9810    29.1410 ce         1 MOL       0.000000
      5 C5          63.6650    43.0570    29.5800 c2         1 MOL       0.000000
      6 C6          64.3460    41.7640    29.9180 c3         1 MOL       0.000000
      7 C7          65.6700    41.6740    29.1640 c3         1 MOL       0.000000
      8 C8          66.5090    42.9440    29.2680 c3         1 MOL       0.000000
      9 C9          65.7430    44.2320    28.9680 c3         1 MOL       0.000000
     10 C10         64.4290    44.3420    29.7450 c3         1 MOL       0.000000
     11 C11         66.5960    45.4980    28.9070 c3         1 MOL       0.000000
     12 C12         67.9660    45.3450    28.2550 c3         1 MOL       0.000000
     13 C13         68.7120    44.1060    28.7480 c3         1 MOL       0.000000
     14 C14         67.8300    42.8820    28.5060 c3         1 MOL       0.000000
     15 C15         68.7520    41.6720    28.6200 c3         1 MOL       0.000000
     16 C16         70.0950    42.1940    28.1160 c3         1 MOL       0.000000
     17 C17         69.9110    43.6940    27.8950 c3         1 MOL       0.000000
     18 C18         69.1340    44.2930    30.2040 c3         1 MOL       0.000000
     19 C19         64.6140    44.5760    31.2420 c3         1 MOL       0.000000
     20 C20         70.5770    41.3900    26.9140 c3         1 MOL       0.000000
     21 F1          65.3690    44.0980    27.6640 f          1 MOL       0.000000
     22 O1          60.4800    44.1890    28.4560 o          1 MOL       0.000000
     23 C21         71.1740    44.4960    28.1710 c          1 MOL       0.000000
     24 O2          72.0850    44.0120    28.8390 o          1 MOL       0.000000
     25 C22         71.3700    45.9150    27.6630 c3         1 MOL       0.000000
     26 O3          71.5950    45.9010    26.2620 oh         1 MOL       0.000000
     27 H1          70.9570    46.5690    25.8050 ho         1 MOL       0.000000
     28 O4          69.6060    43.8730    26.5190 oh         1 MOL       0.000000
     29 H2          70.3380    44.4480    26.0770 ho         1 MOL       0.000000
     30 O5          66.8330    45.9830    30.2210 oh         1 MOL       0.000000
     31 H3          67.7380    46.4750    30.2490 ho         1 MOL       0.000000
     32 H4          64.1450    46.4400    29.2630 ha         1 MOL       0.000000
     33 H5          61.9600    46.4030    28.4730 ha         1 MOL       0.000000
     34 H6          61.9500    42.0620    29.0550 ha         1 MOL       0.000000
     35 H7          64.5320    41.7230    30.9710 hc         1 MOL       0.000000
     36 H8          63.7180    40.9450    29.6350 hc         1 MOL       0.000000
     37 H9          66.2350    40.8590    29.5660 hc         1 MOL       0.000000
     38 H10         65.4370    41.5310    28.1300 hc         1 MOL       0.000000
     39 H11         66.7610    42.9850    30.3070 hc         1 MOL       0.000000
     40 H12         66.0210    46.1640    28.2980 h1         1 MOL       0.000000
     41 H13         67.8360    45.2690    27.1960 hc         1 MOL       0.000000
     42 H14         68.5490    46.2030    28.5180 hc         1 MOL       0.000000
     43 H15         67.4070    42.8170    27.5250 hc         1 MOL       0.000000
     44 H16         68.8270    41.3430    29.6360 hc         1 MOL       0.000000
     45 H17         68.4000    40.8280    28.0650 hc         1 MOL       0.000000
     46 H18         70.8920    42.0630    28.8180 hc         1 MOL       0.000000
     47 H19         69.7460    45.1670    30.2890 hc         1 MOL       0.000000
     48 H20         69.6880    43.4370    30.5270 hc         1 MOL       0.000000
     49 H21         68.2640    44.4060    30.8160 hc         1 MOL       0.000000
     50 H22         65.1560    45.4860    31.3960 hc         1 MOL       0.000000
     51 H23         65.1600    43.7590    31.6660 hc         1 MOL       0.000000
     52 H24         63.6560    44.6470    31.7130 hc         1 MOL       0.000000
     53 H25         69.8490    41.4470    26.1320 hc         1 MOL       0.000000
     54 H26         70.7140    40.3680    27.2000 hc         1 MOL       0.000000
     55 H27         71.5060    41.7900    26.5670 hc         1 MOL       0.000000
     56 H28         70.4940    46.4920    27.8760 h1         1 MOL       0.000000
     57 H29         72.2170    46.3490    28.1510 h1         1 MOL       0.000000
@<TRIPOS>BOND
     1     1    10 1   
     2     1    32 1   
     3     2     1 2   
     4     2    33 1   
     5     3     2 1   
     6     3     4 1   
     7     4     5 2   
     8     4    34 1   
     9     5    10 1   
    10     5     6 1   
    11     6    35 1   
    12     6    36 1   
    13     7     8 1   
    14     7     6 1   
    15     7    37 1   
    16     7    38 1   
    17     8    14 1   
    18     8    39 1   
    19     9    11 1   
    20     9     8 1   
    21    10     9 1   
    22    10    19 1   
    23    11    30 1   
    24    11    40 1   
    25    12    13 1   
    26    12    11 1   
    27    12    41 1   
    28    12    42 1   
    29    13    17 1   
    30    13    18 1   
    31    14    15 1   
    32    14    13 1   
    33    14    43 1   
    34    15    44 1   
    35    15    45 1   
    36    16    17 1   
    37    16    15 1   
    38    16    46 1   
    39    17    28 1   
    40    17    23 1   
    41    18    47 1   
    42    18    48 1   
    43    18    49 1   
    44    19    50 1   
    45    19    51 1   
    46    19    52 1   
    47    20    16 1   
    48    20    53 1   
    49    20    54 1   
    50    20    55 1   
    51    21     9 1   
    52    22     3 2   
    53    23    24 2   
    54    25    23 1   
    55    25    56 1   
    56    25    57 1   
    57    26    25 1   
    58    27    26 1   
    59    29    28 1   
    60    30    31 1   
@<TRIPOS>SUBSTRUCTURE
     1 MOL         1 TEMP              0 ****  ****    0 ROOT
