@<TRIPOS>MOLECULE
MOL
   45    45     1     0     0
SMALL
No Charge or Current Charge


@<TRIPOS>ATOM
      1 C1          22.1110     6.8380    31.8070 c          1 MOL       0.000000
      2 O1          21.4210     6.3170    32.6630 o          1 MOL       0.000000
      3 N1          22.0700     8.2790    31.4600 n          1 MOL       0.000000
      4 H1          22.7000     8.6370    30.7280 hn         1 MOL       0.000000
      5 C2          23.0850     6.0680    30.9410 c3         1 MOL       0.000000
      6 C3          24.0240     7.0690    30.1600 c3         1 MOL       0.000000
      7 C4          25.4470     7.0510    30.7050 c3         1 MOL       0.000000
      8 C5          25.7320     5.7200    31.3840 c3         1 MOL       0.000000
      9 S1          27.3550     5.0720    30.9900 ss         1 MOL       0.000000
     10 C6          27.2960     3.4390    31.6720 c3         1 MOL       0.000000
     11 C7          26.2110     3.3040    32.7400 c3         1 MOL       0.000000
     12 C8          28.6530     3.0870    32.2620 c3         1 MOL       0.000000
     13 N2          24.3180     6.6160    28.7880 n3         1 MOL       0.000000
     14 H2          25.2650     6.9230    28.5210 hn         1 MOL       0.000000
     15 H3          24.2670     5.5880    28.7480 hn         1 MOL       0.000000
     16 O2          22.3390     5.2510    30.0460 oh         1 MOL       0.000000
     17 H4          22.1440     4.3430    30.4910 ho         1 MOL       0.000000
     18 N3          21.1560     9.2080    32.1310 n          1 MOL       0.000000
     19 C9          21.5210    10.4950    32.4440 c          1 MOL       0.000000
     20 O3          22.6670    10.8830    32.1360 o          1 MOL       0.000000
     21 H5          20.2090     8.8850    32.3760 hn         1 MOL       0.000000
     22 C10         20.5560    11.4120    33.1350 ca         1 MOL       0.000000
     23 C11         19.9280    12.6390    32.5400 ca         1 MOL       0.000000
     24 C12         18.9830    13.4500    33.3650 ca         1 MOL       0.000000
     25 C13         18.6640    13.0530    34.7680 ca         1 MOL       0.000000
     26 C14         19.2970    11.8440    35.3250 ca         1 MOL       0.000000
     27 C15         20.2160    11.0390    34.5440 ca         1 MOL       0.000000
     28 Cl1         18.9830    11.3300    36.9260 cl         1 MOL       0.000000
     29 H6          23.7120     5.4460    31.5450 h1         1 MOL       0.000000
     30 H7          23.4990     7.9980    30.2360 h1         1 MOL       0.000000
     31 H8          25.5640     7.8430    31.4160 hc         1 MOL       0.000000
     32 H9          26.1330     7.1840    29.8950 hc         1 MOL       0.000000
     33 H10         24.9950     5.0110    31.0690 h1         1 MOL       0.000000
     34 H11         25.6990     5.8840    32.4410 h1         1 MOL       0.000000
     35 H12         27.0530     2.7600    30.8810 h1         1 MOL       0.000000
     36 H13         26.4220     3.9710    33.5490 hc         1 MOL       0.000000
     37 H14         26.1910     2.2980    33.1030 hc         1 MOL       0.000000
     38 H15         25.2600     3.5490    32.3150 hc         1 MOL       0.000000
     39 H16         28.8870     3.7710    33.0510 hc         1 MOL       0.000000
     40 H17         29.4010     3.1520    31.5000 hc         1 MOL       0.000000
     41 H18         28.6250     2.0900    32.6500 hc         1 MOL       0.000000
     42 H19         20.1470    12.9190    31.5710 ha         1 MOL       0.000000
     43 H20         18.5460    14.2930    32.9610 ha         1 MOL       0.000000
     44 H21         18.0120    13.6150    35.3380 ha         1 MOL       0.000000
     45 H22         20.6410    10.1980    34.9650 ha         1 MOL       0.000000
@<TRIPOS>BOND
     1     1     2 2   
     2     3     1 1   
     3     3    18 1   
     4     4     3 1   
     5     5     1 1   
     6     5    29 1   
     7     6     7 1   
     8     6     5 1   
     9     6    30 1   
    10     7     8 1   
    11     7    31 1   
    12     7    32 1   
    13     8    33 1   
    14     8    34 1   
    15     9     8 1   
    16     9    10 1   
    17    10    12 1   
    18    10    11 1   
    19    10    35 1   
    20    11    36 1   
    21    11    37 1   
    22    11    38 1   
    23    12    39 1   
    24    12    40 1   
    25    12    41 1   
    26    13     6 1   
    27    14    13 1   
    28    15    13 1   
    29    16    17 1   
    30    16     5 1   
    31    18    21 1   
    32    18    19 1   
    33    19    22 1   
    34    20    19 2   
    35    22    27 ar  
    36    23    22 ar  
    37    23    24 ar  
    38    23    42 1   
    39    24    25 ar  
    40    24    43 1   
    41    25    26 ar  
    42    25    44 1   
    43    26    28 1   
    44    27    26 ar  
    45    27    45 1   
@<TRIPOS>SUBSTRUCTURE
     1 MOL         1 TEMP              0 ****  ****    0 ROOT
