@<TRIPOS>MOLECULE
MOL
   45    45     1     0     0
SMALL
No Charge or Current Charge


@<TRIPOS>ATOM
      1 C1          23.9600    12.5250    29.7540 c          1 MOL       0.000000
      2 O1          23.2750    13.3450    29.1710 o          1 MOL       0.000000
      3 N1          23.7120    12.0610    31.1410 n          1 MOL       0.000000
      4 H1          24.3380    11.3540    31.5520 hn         1 MOL       0.000000
      5 C2          25.1970    11.8960    29.1510 c3         1 MOL       0.000000
      6 C3          24.8030    10.6040    28.3330 c3         1 MOL       0.000000
      7 C4          25.0450     9.3310    29.1350 c3         1 MOL       0.000000
      8 C5          23.7200     8.7250    29.5720 c3         1 MOL       0.000000
      9 S1          23.8100     7.9430    31.1820 ss         1 MOL       0.000000
     10 C6          22.4450     6.8170    31.1420 c3         1 MOL       0.000000
     11 C7          22.0230     6.3770    32.5440 c3         1 MOL       0.000000
     12 C8          22.8140     5.6010    30.3060 c3         1 MOL       0.000000
     13 N2          23.3450    10.4670    28.1590 n3         1 MOL       0.000000
     14 H2          22.8700    11.2750    28.5870 hn         1 MOL       0.000000
     15 H3          23.1200    10.4300    27.1550 hn         1 MOL       0.000000
     16 O2          26.1010    11.5870    30.2060 oh         1 MOL       0.000000
     17 H4          26.4970    10.6480    30.0560 ho         1 MOL       0.000000
     18 N3          22.6010    12.5810    31.9410 n          1 MOL       0.000000
     19 C9          21.5000    11.8180    32.2480 c          1 MOL       0.000000
     20 O3          21.4560    10.6400    31.8370 o          1 MOL       0.000000
     21 H5          22.6460    13.5510    32.2850 hn         1 MOL       0.000000
     22 C10         20.3820    12.3910    33.0670 ca         1 MOL       0.000000
     23 C11         19.4700    13.5090    32.6510 ca         1 MOL       0.000000
     24 C12         18.4010    13.9680    33.5880 ca         1 MOL       0.000000
     25 C13         18.2370    13.3290    34.9270 ca         1 MOL       0.000000
     26 C14         19.1480    12.2350    35.3080 ca         1 MOL       0.000000
     27 C15         20.1920    11.7700    34.4150 ca         1 MOL       0.000000
     28 Cl1         19.0230    11.4570    36.8270 cl         1 MOL       0.000000
     29 H6          25.6690    12.5740    28.4710 h1         1 MOL       0.000000
     30 H7          25.3680    10.7110    27.4310 h1         1 MOL       0.000000
     31 H8          25.6290     9.5640    30.0000 hc         1 MOL       0.000000
     32 H9          25.5660     8.6260    28.5210 hc         1 MOL       0.000000
     33 H10         23.4260     7.9910    28.8510 h1         1 MOL       0.000000
     34 H11         23.0090     9.5220    29.6410 h1         1 MOL       0.000000
     35 H12         21.6130     7.3260    30.7020 h1         1 MOL       0.000000
     36 H13         22.8340     5.8630    33.0160 hc         1 MOL       0.000000
     37 H14         21.1790     5.7230    32.4740 hc         1 MOL       0.000000
     38 H15         21.7610     7.2370    33.1240 hc         1 MOL       0.000000
     39 H16         23.6460     5.1000    30.7540 hc         1 MOL       0.000000
     40 H17         23.0760     5.9140    29.3170 hc         1 MOL       0.000000
     41 H18         21.9790     4.9340    30.2590 hc         1 MOL       0.000000
     42 H19         19.5810    13.9560    31.7270 ha         1 MOL       0.000000
     43 H20         17.7700    14.7340    33.3070 ha         1 MOL       0.000000
     44 H21         17.4990    13.6480    35.5740 ha         1 MOL       0.000000
     45 H22         20.8120    11.0010    34.7130 ha         1 MOL       0.000000
@<TRIPOS>BOND
     1     1     3 1   
     2     2     1 2   
     3     3     4 1   
     4     3    18 1   
     5     5     1 1   
     6     5    16 1   
     7     5    29 1   
     8     6     7 1   
     9     6     5 1   
    10     6    30 1   
    11     7     8 1   
    12     7    31 1   
    13     7    32 1   
    14     8     9 1   
    15     8    33 1   
    16     8    34 1   
    17    10     9 1   
    18    10    11 1   
    19    10    35 1   
    20    11    36 1   
    21    11    37 1   
    22    11    38 1   
    23    12    10 1   
    24    12    39 1   
    25    12    40 1   
    26    12    41 1   
    27    13     6 1   
    28    13    14 1   
    29    15    13 1   
    30    17    16 1   
    31    18    19 1   
    32    18    21 1   
    33    19    22 1   
    34    20    19 2   
    35    22    27 ar  
    36    23    22 ar  
    37    23    24 ar  
    38    23    42 1   
    39    24    25 ar  
    40    24    43 1   
    41    25    26 ar  
    42    25    44 1   
    43    26    28 1   
    44    27    26 ar  
    45    27    45 1   
@<TRIPOS>SUBSTRUCTURE
     1 MOL         1 TEMP              0 ****  ****    0 ROOT
