@<TRIPOS>MOLECULE
MOL
   78    81     1     0     0
SMALL
No Charge or Current Charge


@<TRIPOS>ATOM
      1 C1          32.5180    25.4960    62.5210 c3         1 MOL       0.000000
      2 C2          31.7160    25.1510    63.8010 c3         1 MOL       0.000000
      3 N1          32.4070    23.9650    64.4300 n          1 MOL       0.000000
      4 C3          31.7060    22.9050    64.8000 c          1 MOL       0.000000
      5 O1          30.4110    22.8240    64.6520 o          1 MOL       0.000000
      6 H1          33.4270    23.9800    64.5730 hn         1 MOL       0.000000
      7 C4          32.4640    21.8150    65.4790 ca         1 MOL       0.000000
      8 C5          32.5990    21.8800    66.8900 ca         1 MOL       0.000000
      9 C6          33.3540    20.8870    67.5770 ca         1 MOL       0.000000
     10 C7          33.8500    19.8010    66.9140 ca         1 MOL       0.000000
     11 C8          33.6530    19.6840    65.5060 ca         1 MOL       0.000000
     12 C9          33.0090    20.7160    64.7480 ca         1 MOL       0.000000
     13 C10         32.9950    20.6120    63.2270 c3         1 MOL       0.000000
     14 O2          34.2160    18.6500    64.8170 oh         1 MOL       0.000000
     15 H2          35.0980    18.9630    64.3880 ho         1 MOL       0.000000
     16 C11         31.7300    26.3210    64.8790 c3         1 MOL       0.000000
     17 C12         33.1220    26.8440    65.1330 ca         1 MOL       0.000000
     18 C13         34.0470    26.0480    65.8780 ca         1 MOL       0.000000
     19 C14         35.3210    26.6220    66.1890 ca         1 MOL       0.000000
     20 C15         35.6780    27.9180    65.7860 ca         1 MOL       0.000000
     21 C16         34.7550    28.6650    65.0470 ca         1 MOL       0.000000
     22 C17         33.5030    28.1490    64.7490 ca         1 MOL       0.000000
     23 O3          33.8950    25.7050    62.8270 oh         1 MOL       0.000000
     24 H3          34.0810    26.7160    62.8990 ho         1 MOL       0.000000
     25 C18         31.9730    26.8070    61.9550 c          1 MOL       0.000000
     26 O4          31.0950    27.5000    62.5110 o          1 MOL       0.000000
     27 N2          32.4560    27.2090    60.7340 n          1 MOL       0.000000
     28 C19         33.5000    26.4360    59.9640 c3         1 MOL       0.000000
     29 C20         31.9110    28.4120    60.0670 c3         1 MOL       0.000000
     30 S1          33.5270    27.1930    58.3160 ss         1 MOL       0.000000
     31 C21         32.9750    28.8000    58.9980 c3         1 MOL       0.000000
     32 C22         34.1320    29.5050    59.7090 c3         1 MOL       0.000000
     33 C23         32.4240    29.7390    57.9080 c3         1 MOL       0.000000
     34 C24         30.5100    28.1030    59.5010 c          1 MOL       0.000000
     35 O5          30.2570    27.1200    58.7440 o          1 MOL       0.000000
     36 N3          29.5350    29.0430    59.8630 n          1 MOL       0.000000
     37 H4          29.7890    29.8160    60.4940 hn         1 MOL       0.000000
     38 C25         28.1440    28.9460    59.3560 c3         1 MOL       0.000000
     39 C26         27.1730    29.5550    60.3770 ca         1 MOL       0.000000
     40 C27         25.7990    29.2310    60.3800 ca         1 MOL       0.000000
     41 C28         24.9630    29.8850    61.2890 ca         1 MOL       0.000000
     42 C29         25.2330    28.2790    59.3990 c3         1 MOL       0.000000
     43 C30         25.5020    30.8310    62.1970 ca         1 MOL       0.000000
     44 C31         26.8290    31.1500    62.1980 ca         1 MOL       0.000000
     45 C32         27.6690    30.5080    61.2590 ca         1 MOL       0.000000
     46 H5          32.4230    24.6870    61.8270 h1         1 MOL       0.000000
     47 H6          30.6980    24.9730    63.5240 h1         1 MOL       0.000000
     48 H7          32.1510    22.6450    67.4170 ha         1 MOL       0.000000
     49 H8          33.5290    20.9890    68.5890 ha         1 MOL       0.000000
     50 H9          34.3640    19.0690    67.4290 ha         1 MOL       0.000000
     51 H10         32.4790    21.4550    62.8170 hc         1 MOL       0.000000
     52 H11         32.4950    19.7120    62.9360 hc         1 MOL       0.000000
     53 H12         34.0000    20.5960    62.8610 hc         1 MOL       0.000000
     54 H13         31.3290    25.9480    65.7980 hc         1 MOL       0.000000
     55 H14         31.1400    27.1280    64.4960 hc         1 MOL       0.000000
     56 H15         33.8040    25.0920    66.1810 ha         1 MOL       0.000000
     57 H16         36.0010    26.0630    66.7280 ha         1 MOL       0.000000
     58 H17         36.6010    28.3110    66.0290 ha         1 MOL       0.000000
     59 H18         35.0080    29.6100    64.7200 ha         1 MOL       0.000000
     60 H19         32.8300    28.7350    64.2310 ha         1 MOL       0.000000
     61 H20         34.4570    26.5260    60.4340 h2         1 MOL       0.000000
     62 H21         33.2750    25.3910    59.9220 h2         1 MOL       0.000000
     63 H22         31.7550    29.2430    60.7220 h1         1 MOL       0.000000
     64 H23         34.8760    29.7810    58.9920 hc         1 MOL       0.000000
     65 H24         34.5620    28.8440    60.4330 hc         1 MOL       0.000000
     66 H25         33.7670    30.3830    60.2000 hc         1 MOL       0.000000
     67 H26         33.2000    29.9670    57.2080 hc         1 MOL       0.000000
     68 H27         32.0750    30.6440    58.3600 hc         1 MOL       0.000000
     69 H28         31.6140    29.2590    57.3990 hc         1 MOL       0.000000
     70 H29         27.8950    27.9180    59.1990 h1         1 MOL       0.000000
     71 H30         28.0670    29.4820    58.4330 h1         1 MOL       0.000000
     72 H31         23.9520    29.6790    61.2990 ha         1 MOL       0.000000
     73 H32         26.0200    27.8810    58.7930 hc         1 MOL       0.000000
     74 H33         24.5250    28.7860    58.7770 hc         1 MOL       0.000000
     75 H34         24.7440    27.4810    59.9180 hc         1 MOL       0.000000
     76 H35         24.8740    31.2910    62.8750 ha         1 MOL       0.000000
     77 H36         27.2090    31.8400    62.8650 ha         1 MOL       0.000000
     78 H37         28.6710    30.7520    61.2280 ha         1 MOL       0.000000
@<TRIPOS>BOND
     1     1    23 1   
     2     1     2 1   
     3     1    46 1   
     4     2     3 1   
     5     2    16 1   
     6     2    47 1   
     7     3     6 1   
     8     3     4 1   
     9     4     7 1   
    10     5     4 2   
    11     7     8 ar  
    12     8     9 ar  
    13     8    48 1   
    14     9    49 1   
    15    10     9 ar  
    16    10    50 1   
    17    11    10 ar  
    18    12     7 ar  
    19    12    11 ar  
    20    13    12 1   
    21    13    51 1   
    22    13    52 1   
    23    13    53 1   
    24    14    11 1   
    25    15    14 1   
    26    16    17 1   
    27    16    54 1   
    28    16    55 1   
    29    17    18 ar  
    30    18    19 ar  
    31    18    56 1   
    32    19    57 1   
    33    20    19 ar  
    34    20    58 1   
    35    21    20 ar  
    36    21    59 1   
    37    22    21 ar  
    38    22    17 ar  
    39    22    60 1   
    40    23    24 1   
    41    25    26 2   
    42    25     1 1   
    43    27    25 1   
    44    28    27 1   
    45    28    61 1   
    46    28    62 1   
    47    29    27 1   
    48    29    63 1   
    49    30    31 1   
    50    30    28 1   
    51    31    32 1   
    52    31    29 1   
    53    32    64 1   
    54    32    65 1   
    55    32    66 1   
    56    33    31 1   
    57    33    67 1   
    58    33    68 1   
    59    33    69 1   
    60    34    36 1   
    61    34    29 1   
    62    35    34 2   
    63    36    37 1   
    64    38    36 1   
    65    38    39 1   
    66    38    70 1   
    67    38    71 1   
    68    39    40 ar  
    69    39    45 ar  
    70    40    41 ar  
    71    41    43 ar  
    72    41    72 1   
    73    42    40 1   
    74    42    73 1   
    75    42    74 1   
    76    42    75 1   
    77    43    44 ar  
    78    43    76 1   
    79    44    77 1   
    80    45    44 ar  
    81    45    78 1   
@<TRIPOS>SUBSTRUCTURE
     1 MOL         1 TEMP              0 ****  ****    0 ROOT
