@<TRIPOS>MOLECULE
MOL
   78    81     1     0     0
SMALL
No Charge or Current Charge


@<TRIPOS>ATOM
      1 C1          33.8960    31.7880    56.1630 c3         1 MOL       0.000000
      2 C2          33.8760    33.2570    56.6540 c3         1 MOL       0.000000
      3 N1          35.2770    33.7890    56.4670 n          1 MOL       0.000000
      4 C3          35.6390    34.3200    55.3100 c          1 MOL       0.000000
      5 O1          34.8320    34.4090    54.2870 o          1 MOL       0.000000
      6 H1          35.9540    33.7390    57.2420 hn         1 MOL       0.000000
      7 C4          37.0620    34.7510    55.1960 ca         1 MOL       0.000000
      8 C5          37.9160    34.0010    54.3470 ca         1 MOL       0.000000
      9 C6          39.2940    34.3460    54.2420 ca         1 MOL       0.000000
     10 C7          39.7840    35.4650    54.8530 ca         1 MOL       0.000000
     11 C8          38.9170    36.2720    55.6480 ca         1 MOL       0.000000
     12 C9          37.5520    35.9000    55.8870 ca         1 MOL       0.000000
     13 C10         36.7350    36.7060    56.8900 c3         1 MOL       0.000000
     14 O2          39.4110    37.3420    56.3330 oh         1 MOL       0.000000
     15 H2          40.4350    37.3750    56.2290 ho         1 MOL       0.000000
     16 C11         32.9090    34.1870    55.7990 c3         1 MOL       0.000000
     17 C12         32.3740    35.3450    56.6050 ca         1 MOL       0.000000
     18 C13         33.2580    36.4000    56.9920 ca         1 MOL       0.000000
     19 C14         32.7390    37.4260    57.8440 ca         1 MOL       0.000000
     20 C15         31.4100    37.4240    58.2970 ca         1 MOL       0.000000
     21 C16         30.5680    36.3840    57.8890 ca         1 MOL       0.000000
     22 C17         31.0460    35.3620    57.0830 ca         1 MOL       0.000000
     23 O3          33.9560    31.7310    54.7390 oh         1 MOL       0.000000
     24 H3          34.0600    30.7500    54.4390 ho         1 MOL       0.000000
     25 C18         32.5880    31.1240    56.5900 c          1 MOL       0.000000
     26 O4          31.4630    31.4460    56.1550 o          1 MOL       0.000000
     27 N2          32.6680    30.1460    57.5510 n          1 MOL       0.000000
     28 C19         33.9720    29.6950    58.1630 c3         1 MOL       0.000000
     29 C20         31.4420    29.5210    58.0940 c3         1 MOL       0.000000
     30 S1          33.4980    28.6620    59.5760 ss         1 MOL       0.000000
     31 C21         31.9220    28.2010    58.7660 c3         1 MOL       0.000000
     32 C22         32.1710    27.1680    57.6650 c3         1 MOL       0.000000
     33 C23         30.9010    27.6210    59.7620 c3         1 MOL       0.000000
     34 C24         30.7320    30.5070    59.0440 c          1 MOL       0.000000
     35 O5          31.3020    31.5080    59.5730 o          1 MOL       0.000000
     36 N3          29.3990    30.1720    59.3140 n          1 MOL       0.000000
     37 H4          28.9790    29.3560    58.8460 hn         1 MOL       0.000000
     38 C25         28.5790    30.9670    60.2600 c3         1 MOL       0.000000
     39 C26         27.1610    30.3860    60.3380 ca         1 MOL       0.000000
     40 C27         26.3150    30.6370    61.4410 ca         1 MOL       0.000000
     41 C28         25.0660    30.0090    61.4780 ca         1 MOL       0.000000
     42 C29         26.7580    31.4820    62.5710 c3         1 MOL       0.000000
     43 C30         24.6640    29.1630    60.4140 ca         1 MOL       0.000000
     44 C31         25.4790    28.9140    59.3470 ca         1 MOL       0.000000
     45 C32         26.7520    29.5290    59.3230 ca         1 MOL       0.000000
     46 H5          34.7520    31.2980    56.5790 h1         1 MOL       0.000000
     47 H6          33.5310    33.2690    57.6670 h1         1 MOL       0.000000
     48 H7          37.5390    33.2070    53.8060 ha         1 MOL       0.000000
     49 H8          39.9300    33.7430    53.6970 ha         1 MOL       0.000000
     50 H9          40.7760    35.7250    54.7400 ha         1 MOL       0.000000
     51 H10         35.7460    36.3020    56.9510 hc         1 MOL       0.000000
     52 H11         36.6850    37.7260    56.5710 hc         1 MOL       0.000000
     53 H12         37.2010    36.6560    57.8520 hc         1 MOL       0.000000
     54 H13         33.4520    34.5720    54.9610 hc         1 MOL       0.000000
     55 H14         32.0770    33.5940    55.4830 hc         1 MOL       0.000000
     56 H15         34.2370    36.4210    56.6680 ha         1 MOL       0.000000
     57 H16         33.3630    38.1940    58.1360 ha         1 MOL       0.000000
     58 H17         31.0620    38.1720    58.9170 ha         1 MOL       0.000000
     59 H18         29.5810    36.3770    58.1910 ha         1 MOL       0.000000
     60 H19         30.4110    34.5900    56.8250 ha         1 MOL       0.000000
     61 H20         34.5450    30.5380    58.4890 h2         1 MOL       0.000000
     62 H21         34.5810    29.1620    57.4630 h2         1 MOL       0.000000
     63 H22         30.7060    29.2880    57.3530 h1         1 MOL       0.000000
     64 H23         32.8800    27.5570    56.9640 hc         1 MOL       0.000000
     65 H24         31.2510    26.9550    57.1610 hc         1 MOL       0.000000
     66 H25         32.5560    26.2690    58.1000 hc         1 MOL       0.000000
     67 H26         30.0000    27.3680    59.2430 hc         1 MOL       0.000000
     68 H27         30.6850    28.3490    60.5160 hc         1 MOL       0.000000
     69 H28         31.3080    26.7430    60.2190 hc         1 MOL       0.000000
     70 H29         28.5290    31.9810    59.9210 h1         1 MOL       0.000000
     71 H30         29.0280    30.9320    61.2310 h1         1 MOL       0.000000
     72 H31         24.4360    30.1620    62.2810 ha         1 MOL       0.000000
     73 H32         27.7320    31.8740    62.3630 hc         1 MOL       0.000000
     74 H33         26.7940    30.8930    63.4640 hc         1 MOL       0.000000
     75 H34         26.0690    32.2900    62.7040 hc         1 MOL       0.000000
     76 H35         23.7310    28.7240    60.4470 ha         1 MOL       0.000000
     77 H36         25.1740    28.2940    58.5800 ha         1 MOL       0.000000
     78 H37         27.3910    29.3380    58.5350 ha         1 MOL       0.000000
@<TRIPOS>BOND
     1     1    25 1   
     2     1     2 1   
     3     1    46 1   
     4     2    47 1   
     5     3     2 1   
     6     3     6 1   
     7     4     3 1   
     8     5     4 2   
     9     7     4 1   
    10     7    12 ar  
    11     8     7 ar  
    12     8    48 1   
    13     9     8 ar  
    14     9    10 ar  
    15     9    49 1   
    16    10    11 ar  
    17    10    50 1   
    18    11    12 ar  
    19    11    14 1   
    20    12    13 1   
    21    13    51 1   
    22    13    52 1   
    23    13    53 1   
    24    15    14 1   
    25    16    17 1   
    26    16     2 1   
    27    16    54 1   
    28    16    55 1   
    29    17    18 ar  
    30    17    22 ar  
    31    18    19 ar  
    32    18    56 1   
    33    19    20 ar  
    34    19    57 1   
    35    20    58 1   
    36    21    20 ar  
    37    21    59 1   
    38    22    21 ar  
    39    22    60 1   
    40    23     1 1   
    41    24    23 1   
    42    25    27 1   
    43    26    25 2   
    44    27    29 1   
    45    27    28 1   
    46    28    30 1   
    47    28    61 1   
    48    28    62 1   
    49    29    31 1   
    50    29    34 1   
    51    29    63 1   
    52    31    30 1   
    53    31    33 1   
    54    32    31 1   
    55    32    64 1   
    56    32    65 1   
    57    32    66 1   
    58    33    67 1   
    59    33    68 1   
    60    33    69 1   
    61    34    36 1   
    62    34    35 2   
    63    36    38 1   
    64    37    36 1   
    65    38    39 1   
    66    38    70 1   
    67    38    71 1   
    68    39    40 ar  
    69    40    41 ar  
    70    40    42 1   
    71    41    72 1   
    72    42    73 1   
    73    42    74 1   
    74    42    75 1   
    75    43    41 ar  
    76    43    76 1   
    77    44    43 ar  
    78    44    77 1   
    79    45    44 ar  
    80    45    39 ar  
    81    45    78 1   
@<TRIPOS>SUBSTRUCTURE
     1 MOL         1 TEMP              0 ****  ****    0 ROOT
