@<TRIPOS>MOLECULE
MOL
   33    35     1     0     0
SMALL
No Charge or Current Charge


@<TRIPOS>ATOM
      1 C1          40.7890     4.9510    36.5460 ca         1 MOL       0.000000
      2 C2          39.7970     5.2600    35.5770 ca         1 MOL       0.000000
      3 C3          39.1020     6.5010    35.6920 ce         1 MOL       0.000000
      4 N1          39.3040     7.3220    36.7000 n2         1 MOL       0.000000
      5 C4          40.2030     7.0360    37.6700 c3         1 MOL       0.000000
      6 N2          40.9960     5.9300    37.6170 nh         1 MOL       0.000000
      7 H1          41.7330     5.7840    38.3210 hn         1 MOL       0.000000
      8 C5          41.5280     3.7800    36.5250 ca         1 MOL       0.000000
      9 C6          41.3000     2.8630    35.5000 ca         1 MOL       0.000000
     10 C7          40.3460     3.1360    34.4940 ca         1 MOL       0.000000
     11 C8          39.6110     4.2460    34.5410 ca         1 MOL       0.000000
     12 S1          38.2910     4.5060    33.3480 ss         1 MOL       0.000000
     13 C9          38.0940     2.8920    32.6180 ca         1 MOL       0.000000
     14 C10         38.7510     2.6000    31.4510 ca         1 MOL       0.000000
     15 C11         38.5830     1.3390    30.8240 ca         1 MOL       0.000000
     16 C12         37.6390     0.4480    31.4060 ca         1 MOL       0.000000
     17 C13         36.9750     0.7320    32.5810 ca         1 MOL       0.000000
     18 C14         37.1500     2.0090    33.2190 ca         1 MOL       0.000000
     19 N3          38.1330     7.0080    34.9070 nh         1 MOL       0.000000
     20 H2          37.9470     8.0210    34.9080 hn         1 MOL       0.000000
     21 H3          37.5780     6.3840    34.3040 hn         1 MOL       0.000000
     22 N4          40.4330     7.8260    38.7240 n3         1 MOL       0.000000
     23 H4          39.7450     8.5460    38.9880 hn         1 MOL       0.000000
     24 H5          41.2980     7.7150    39.2720 hn         1 MOL       0.000000
     25 H6          39.2020     7.1460    37.3080 h3         1 MOL       0.000000
     26 H7          42.2340     3.5900    37.2540 ha         1 MOL       0.000000
     27 H8          41.8320     1.9790    35.4760 ha         1 MOL       0.000000
     28 H9          40.2180     2.4700    33.7160 ha         1 MOL       0.000000
     29 H10         39.3730     3.3040    31.0250 ha         1 MOL       0.000000
     30 H11         39.1220     1.0790    29.9830 ha         1 MOL       0.000000
     31 H12         37.4430    -0.4470    30.9300 ha         1 MOL       0.000000
     32 H13         36.3510     0.0270    33.0030 ha         1 MOL       0.000000
     33 H14         36.6210     2.2720    34.0650 ha         1 MOL       0.000000
@<TRIPOS>BOND
     1     1     6 1   
     2     2     3 1   
     3     2     1 ar  
     4     3     4 2   
     5     4     5 1   
     6     5    22 1   
     7     5    25 1   
     8     6     5 1   
     9     6     7 1   
    10     8     1 ar  
    11     8    26 1   
    12     9     8 ar  
    13     9    27 1   
    14    10    11 ar  
    15    10     9 ar  
    16    10    28 1   
    17    11     2 ar  
    18    12    11 1   
    19    13    18 ar  
    20    13    12 1   
    21    14    13 ar  
    22    14    29 1   
    23    15    16 ar  
    24    15    14 ar  
    25    15    30 1   
    26    16    17 ar  
    27    16    31 1   
    28    17    18 ar  
    29    17    32 1   
    30    18    33 1   
    31    19    20 1   
    32    19     3 1   
    33    21    19 1   
    34    22    23 1   
    35    22    24 1   
@<TRIPOS>SUBSTRUCTURE
     1 MOL         1 TEMP              0 ****  ****    0 ROOT
