@<TRIPOS>MOLECULE
MOL
   33    35     1     0     0
SMALL
No Charge or Current Charge


@<TRIPOS>ATOM
      1 C1          40.2110     5.4530    36.1340 ca         1 MOL       0.000000
      2 C2          39.8030     4.7870    34.9470 ca         1 MOL       0.000000
      3 C3          40.3190     3.4810    34.6920 ce         1 MOL       0.000000
      4 N1          41.2050     2.9150    35.4830 n2         1 MOL       0.000000
      5 C4          41.6560     3.5410    36.5940 c3         1 MOL       0.000000
      6 N2          41.1650     4.7470    36.9950 nh         1 MOL       0.000000
      7 H1          41.4610     5.1580    37.8910 hn         1 MOL       0.000000
      8 C5          39.7670     6.7170    36.4830 ca         1 MOL       0.000000
      9 C6          38.8680     7.3680    35.6390 ca         1 MOL       0.000000
     10 C7          38.4080     6.7370    34.4610 ca         1 MOL       0.000000
     11 C8          38.8670     5.5370    34.1110 ca         1 MOL       0.000000
     12 S1          38.3990     4.8150    32.5320 ss         1 MOL       0.000000
     13 C9          37.3660     6.0770    31.8120 ca         1 MOL       0.000000
     14 C10         36.0410     6.1330    32.1510 ca         1 MOL       0.000000
     15 C11         35.1840     7.1000    31.5640 ca         1 MOL       0.000000
     16 C12         35.7420     7.9280    30.5510 ca         1 MOL       0.000000
     17 C13         37.0760     7.8810    30.2040 ca         1 MOL       0.000000
     18 C14         37.9450     6.9030    30.8030 ca         1 MOL       0.000000
     19 N3          40.0830     2.6630    33.6500 nh         1 MOL       0.000000
     20 H2          39.4700     2.9710    32.8810 hn         1 MOL       0.000000
     21 H3          40.5160     1.7290    33.6190 hn         1 MOL       0.000000
     22 N4          42.5690     3.0190    37.4210 n3         1 MOL       0.000000
     23 H4          43.5370     3.3690    37.4060 hn         1 MOL       0.000000
     24 H5          42.3030     2.2660    38.0710 hn         1 MOL       0.000000
     25 H6          41.7810     3.1870    35.5920 h3         1 MOL       0.000000
     26 H7          40.0950     7.1690    37.3510 ha         1 MOL       0.000000
     27 H8          38.5370     8.3160    35.8760 ha         1 MOL       0.000000
     28 H9          37.7100     7.2110    33.8670 ha         1 MOL       0.000000
     29 H10         35.6610     5.4650    32.8400 ha         1 MOL       0.000000
     30 H11         34.2000     7.1980    31.8590 ha         1 MOL       0.000000
     31 H12         35.1240     8.5900    30.0560 ha         1 MOL       0.000000
     32 H13         37.4520     8.5490    29.5130 ha         1 MOL       0.000000
     33 H14         38.9320     6.8040    30.5190 ha         1 MOL       0.000000
@<TRIPOS>BOND
     1     1     8 ar  
     2     1     6 1   
     3     2     1 ar  
     4     3     2 1   
     5     3     4 2   
     6     4     5 1   
     7     5     6 1   
     8     5    22 1   
     9     5    25 1   
    10     6     7 1   
    11     8    26 1   
    12     9     8 ar  
    13     9    27 1   
    14    10     9 ar  
    15    10    28 1   
    16    11    10 ar  
    17    11     2 ar  
    18    12    11 1   
    19    13    14 ar  
    20    13    12 1   
    21    14    29 1   
    22    15    14 ar  
    23    15    30 1   
    24    16    15 ar  
    25    16    31 1   
    26    17    16 ar  
    27    17    18 ar  
    28    17    32 1   
    29    18    13 ar  
    30    18    33 1   
    31    19     3 1   
    32    20    19 1   
    33    21    19 1   
    34    22    24 1   
    35    23    22 1   
@<TRIPOS>SUBSTRUCTURE
     1 MOL         1 TEMP              0 ****  ****    0 ROOT
