@<TRIPOS>MOLECULE
MOL
   37    36     1     0     0
SMALL
No Charge or Current Charge


@<TRIPOS>ATOM
      1 N1          67.6080    20.4890   192.0280 n          1 MOL       0.000000
      2 C1          67.2740    21.4200   191.0320 c          1 MOL       0.000000
      3 O1          66.2600    22.0910   191.0960 o          1 MOL       0.000000
      4 H1          68.5050    19.9880   191.9560 hn         1 MOL       0.000000
      5 C2          68.2870    21.6020   189.9050 c3         1 MOL       0.000000
      6 C3          68.6960    23.0750   189.8310 cc         1 MOL       0.000000
      7 C4          69.5240    23.7520   190.7500 cd         1 MOL       0.000000
      8 N2          69.6500    25.0580   190.2800 na         1 MOL       0.000000
      9 C5          68.9510    25.1890   189.0890 ca         1 MOL       0.000000
     10 H2          70.1800    25.8090   190.7450 hn         1 MOL       0.000000
     11 C6          68.3740    23.9570   188.7750 ca         1 MOL       0.000000
     12 C7          68.7990    26.2700   188.2160 ca         1 MOL       0.000000
     13 C8          67.6650    23.7790   187.5880 ca         1 MOL       0.000000
     14 C9          67.5170    24.8760   186.7470 ca         1 MOL       0.000000
     15 C10         68.0790    26.1080   187.0460 ca         1 MOL       0.000000
     16 C11         66.7290    20.2010   193.1680 c1         1 MOL       0.000000
     17 H3          65.8550    20.8690   193.1420 ha         1 MOL       0.000000
     18 C12         66.2640    18.7050   193.1010 c3         1 MOL       0.000000
     19 C13         64.8600    18.6580   192.4640 c          1 MOL       0.000000
     20 O2          63.8340    18.2270   193.2070 oh         1 MOL       0.000000
     21 O3          64.7010    19.0790   191.2390 o          1 MOL       0.000000
     22 C14         67.5490    20.4850   194.4240 c          1 MOL       0.000000
     23 O4          67.2980    19.7810   195.5430 oh         1 MOL       0.000000
     24 O5          68.4940    21.3280   194.3600 o          1 MOL       0.000000
     25 H4          69.1500    21.0000   190.0990 hc         1 MOL       0.000000
     26 H5          67.8490    21.3030   188.9760 hc         1 MOL       0.000000
     27 H6          69.9520    23.3580   191.6020 h4         1 MOL       0.000000
     28 H7          69.2220    27.1840   188.4430 ha         1 MOL       0.000000
     29 H8          67.2630    22.8610   187.3410 ha         1 MOL       0.000000
     30 H9          66.9740    24.7710   185.8760 ha         1 MOL       0.000000
     31 H10         67.9600    26.9020   186.3970 ha         1 MOL       0.000000
     32 H11         66.9690    19.0690   192.3830 hc         1 MOL       0.000000
     33 H12         66.5470    17.7210   193.4120 hc         1 MOL       0.000000
     34 H13         66.2490    19.3570   193.9490 hc         1 MOL       0.000000
     35 H14         63.9820    17.9310   194.0840 ho         1 MOL       0.000000
     36 H15         66.9550    20.3340   193.5940 h5         1 MOL       0.000000
     37 H16         66.5920    19.1650   195.5600 ho         1 MOL       0.000000
@<TRIPOS>BOND
     1     1    16 3   
     2     2     3 2   
     3     2     1 1   
     4     4     1 1   
     5     5     2 1   
     6     5    25 1   
     7     5    26 1   
     8     6     5 1   
     9     6     7 2   
    10     7    27 1   
    11     8    10 1   
    12     8     7 1   
    13     9     8 1   
    14    11     9 ar  
    15    11     6 1   
    16    12     9 ar  
    17    12    28 1   
    18    13    11 ar  
    19    13    29 1   
    20    14    15 ar  
    21    14    13 ar  
    22    14    30 1   
    23    15    12 ar  
    24    15    31 1   
    25    17    16 1   
    26    18    32 1   
    27    18    33 1   
    28    18    34 1   
    29    19    18 1   
    30    19    20 1   
    31    20    35 1   
    32    21    19 2   
    33    22    23 1   
    34    22    36 1   
    35    23    37 1   
    36    24    22 2   
@<TRIPOS>SUBSTRUCTURE
     1 MOL         1 TEMP              0 ****  ****    0 ROOT
