@<TRIPOS>MOLECULE
MOL
   37    36     1     0     0
SMALL
No Charge or Current Charge


@<TRIPOS>ATOM
      1 N1          67.9760    23.7000   189.7510 n          1 MOL       0.000000
      2 C1          67.1650    22.5960   189.4440 c          1 MOL       0.000000
      3 O1          67.3550    21.9180   188.4510 o          1 MOL       0.000000
      4 H1          67.8100    24.2060   190.6330 hn         1 MOL       0.000000
      5 C2          66.0820    22.2450   190.4600 c3         1 MOL       0.000000
      6 C3          66.6730    21.3130   191.5210 cc         1 MOL       0.000000
      7 C4          67.8900    21.5030   192.2070 cd         1 MOL       0.000000
      8 N2          68.0180    20.4350   193.0910 na         1 MOL       0.000000
      9 C5          66.9030    19.6160   192.9870 ca         1 MOL       0.000000
     10 H2          68.8160    20.2770   193.7230 hn         1 MOL       0.000000
     11 C6          66.0380    20.1600   192.0370 ca         1 MOL       0.000000
     12 C7          66.5370    18.4550   193.6750 ca         1 MOL       0.000000
     13 C8          64.7980    19.5770   191.7760 ca         1 MOL       0.000000
     14 C9          64.4690    18.4150   192.4640 ca         1 MOL       0.000000
     15 C10         65.3190    17.8570   193.4080 ca         1 MOL       0.000000
     16 C11         69.0520    24.1620   188.8660 c1         1 MOL       0.000000
     17 H3          68.9990    23.6260   187.9060 ha         1 MOL       0.000000
     18 C12         68.9030    25.7040   188.6280 c3         1 MOL       0.000000
     19 C13         68.1280    25.9240   187.3130 c          1 MOL       0.000000
     20 O2          67.6980    24.8520   186.6360 o          1 MOL       0.000000
     21 O3          67.8750    27.1420   186.9170 oh         1 MOL       0.000000
     22 C14         70.3620    23.8200   189.5690 c          1 MOL       0.000000
     23 O4          70.6940    22.5270   189.7430 oh         1 MOL       0.000000
     24 O5          71.1400    24.7620   189.9080 o          1 MOL       0.000000
     25 H4          65.2710    21.7540   189.9640 hc         1 MOL       0.000000
     26 H5          65.7220    23.1380   190.9260 hc         1 MOL       0.000000
     27 H6          68.5560    22.2810   192.0790 h4         1 MOL       0.000000
     28 H7          67.1720    18.0470   194.3780 ha         1 MOL       0.000000
     29 H8          64.1460    19.9950   191.0940 ha         1 MOL       0.000000
     30 H9          63.5670    17.9540   192.2670 ha         1 MOL       0.000000
     31 H10         65.0430    16.9980   193.9090 ha         1 MOL       0.000000
     32 H11         69.0220    24.6550   188.8010 hc         1 MOL       0.000000
     33 H12         68.3590    26.1400   189.4400 hc         1 MOL       0.000000
     34 H13         69.8660    26.1650   188.5560 hc         1 MOL       0.000000
     35 H14         68.1910    27.8710   187.4140 ho         1 MOL       0.000000
     36 H15         69.4490    24.0510   189.1480 h5         1 MOL       0.000000
     37 H16         70.0990    21.8520   189.4830 ho         1 MOL       0.000000
@<TRIPOS>BOND
     1     1     4 1   
     2     2     1 1   
     3     2     5 1   
     4     3     2 2   
     5     5     6 1   
     6     5    25 1   
     7     5    26 1   
     8     6    11 1   
     9     6     7 2   
    10     7     8 1   
    11     7    27 1   
    12     8    10 1   
    13     9     8 1   
    14     9    12 ar  
    15    11     9 ar  
    16    12    28 1   
    17    13    11 ar  
    18    13    14 ar  
    19    13    29 1   
    20    14    15 ar  
    21    14    30 1   
    22    15    12 ar  
    23    15    31 1   
    24    16     1 3   
    25    17    16 1   
    26    18    32 1   
    27    18    33 1   
    28    18    34 1   
    29    19    18 1   
    30    20    19 2   
    31    21    19 1   
    32    21    35 1   
    33    22    23 1   
    34    22    24 2   
    35    22    36 1   
    36    23    37 1   
@<TRIPOS>SUBSTRUCTURE
     1 MOL         1 TEMP              0 ****  ****    0 ROOT
