@<TRIPOS>MOLECULE
MOL
   37    36     1     0     0
SMALL
No Charge or Current Charge


@<TRIPOS>ATOM
      1 N1          67.7850    20.4130   192.0790 n          1 MOL       0.000000
      2 C1          67.5400    21.3800   191.0920 c          1 MOL       0.000000
      3 O1          66.5640    22.1070   191.1360 o          1 MOL       0.000000
      4 H1          68.6540    19.8620   192.0270 hn         1 MOL       0.000000
      5 C2          68.5990    21.5240   190.0030 c3         1 MOL       0.000000
      6 C3          68.1810    22.6370   189.0400 cc         1 MOL       0.000000
      7 C4          67.0560    22.6180   188.1900 cd         1 MOL       0.000000
      8 N2          67.0480    23.8380   187.5170 na         1 MOL       0.000000
      9 C5          68.1150    24.6110   187.9520 ca         1 MOL       0.000000
     10 H2          66.3570    24.1220   186.8070 hn         1 MOL       0.000000
     11 C6          68.8160    23.8940   188.9230 ca         1 MOL       0.000000
     12 C7          68.5180    25.9080   187.6190 ca         1 MOL       0.000000
     13 C8          69.9040    24.4600   189.5870 ca         1 MOL       0.000000
     14 C9          70.2920    25.7440   189.2230 ca         1 MOL       0.000000
     15 C10         69.6090    26.4690   188.2570 ca         1 MOL       0.000000
     16 C11         66.8530    20.1550   193.1830 c1         1 MOL       0.000000
     17 H3          65.9890    20.8330   193.1060 ha         1 MOL       0.000000
     18 C12         66.3710    18.6640   193.1190 c3         1 MOL       0.000000
     19 C13         64.9650    18.6310   192.4880 c          1 MOL       0.000000
     20 O2          63.9940    17.9630   193.1210 oh         1 MOL       0.000000
     21 O3          64.7470    19.2880   191.3800 o          1 MOL       0.000000
     22 C14         67.6190    20.4500   194.4690 c          1 MOL       0.000000
     23 O4          67.3260    19.7500   195.5810 oh         1 MOL       0.000000
     24 O5          68.5610    21.2980   194.4400 o          1 MOL       0.000000
     25 H4          69.5400    21.7710   190.4490 hc         1 MOL       0.000000
     26 H5          68.6930    20.6020   189.4680 hc         1 MOL       0.000000
     27 H6          66.3730    21.8510   188.0870 h4         1 MOL       0.000000
     28 H7          68.0040    26.4430   186.9010 ha         1 MOL       0.000000
     29 H8          70.4050    23.9420   190.3250 ha         1 MOL       0.000000
     30 H9          71.1110    26.1700   189.6840 ha         1 MOL       0.000000
     31 H10         69.9150    27.4250   188.0150 ha         1 MOL       0.000000
     32 H11         67.0280    19.2340   192.4960 hc         1 MOL       0.000000
     33 H12         66.7440    17.6650   193.2120 hc         1 MOL       0.000000
     34 H13         66.3170    19.1160   194.0870 hc         1 MOL       0.000000
     35 H14         64.1830    17.5020   193.9140 ho         1 MOL       0.000000
     36 H15         67.0610    20.2920   193.6160 h5         1 MOL       0.000000
     37 H16         66.6240    19.1300   195.5730 ho         1 MOL       0.000000
@<TRIPOS>BOND
     1     1    16 3   
     2     2     3 2   
     3     2     1 1   
     4     4     1 1   
     5     5     2 1   
     6     5    25 1   
     7     5    26 1   
     8     6     5 1   
     9     7     6 2   
    10     7    27 1   
    11     8     9 1   
    12     8     7 1   
    13     9    11 ar  
    14    10     8 1   
    15    11     6 1   
    16    11    13 ar  
    17    12     9 ar  
    18    12    15 ar  
    19    12    28 1   
    20    13    29 1   
    21    14    13 ar  
    22    14    30 1   
    23    15    14 ar  
    24    15    31 1   
    25    17    16 1   
    26    18    32 1   
    27    18    33 1   
    28    18    34 1   
    29    19    18 1   
    30    19    20 1   
    31    20    35 1   
    32    21    19 2   
    33    22    23 1   
    34    22    36 1   
    35    23    37 1   
    36    24    22 2   
@<TRIPOS>SUBSTRUCTURE
     1 MOL         1 TEMP              0 ****  ****    0 ROOT
