@<TRIPOS>MOLECULE
MOL
   34    36     1     0     0
SMALL
No Charge or Current Charge


@<TRIPOS>ATOM
      1 N1          29.8890    39.1460    26.4590 na         1 MOL       0.000000
      2 C1          29.9890    40.0280    25.4090 ca         1 MOL       0.000000
      3 C2          30.6800    40.0630    24.1960 ca         1 MOL       0.000000
      4 C3          29.1070    41.1770    25.7130 cp         1 MOL       0.000000
      5 C4          28.9520    42.2670    24.8660 ca         1 MOL       0.000000
      6 C5          29.6680    42.2400    23.6610 ca         1 MOL       0.000000
      7 C6          30.5150    41.1660    23.3410 ca         1 MOL       0.000000
      8 C7          28.5140    40.9060    27.0080 cp         1 MOL       0.000000
      9 C8          29.0460    39.5980    27.4390 ca         1 MOL       0.000000
     10 C9          28.6070    39.1050    28.6740 ca         1 MOL       0.000000
     11 C10         27.6170    41.6590    27.7650 ca         1 MOL       0.000000
     12 C11         27.2270    41.1150    28.9950 ca         1 MOL       0.000000
     13 C12         27.7110    39.8720    29.4270 ca         1 MOL       0.000000
     14 C13         30.6400    37.8860    26.5630 c3         1 MOL       0.000000
     15 C14         32.1350    38.0960    26.8630 c3         1 MOL       0.000000
     16 C15         32.9850    36.8300    26.6410 c3         1 MOL       0.000000
     17 C16         33.5950    36.7840    25.2570 c          1 MOL       0.000000
     18 O1          34.3720    35.8970    24.9370 oh         1 MOL       0.000000
     19 O2          33.2920    37.7100    24.3520 o          1 MOL       0.000000
     20 H1          31.3060    39.2860    23.9300 ha         1 MOL       0.000000
     21 H2          28.3380    43.0590    25.1120 ha         1 MOL       0.000000
     22 H3          29.5710    43.0240    22.9970 ha         1 MOL       0.000000
     23 H4          31.0330    41.1880    22.4490 ha         1 MOL       0.000000
     24 H5          28.9390    38.1920    29.0230 ha         1 MOL       0.000000
     25 H6          27.2590    42.5690    27.4360 ha         1 MOL       0.000000
     26 H7          26.5710    41.6390    29.5950 ha         1 MOL       0.000000
     27 H8          27.3930    39.5080    30.3390 ha         1 MOL       0.000000
     28 H9          30.5500    37.3580    25.6370 h1         1 MOL       0.000000
     29 H10         30.2250    37.3340    27.3810 h1         1 MOL       0.000000
     30 H11         32.2370    38.3990    27.8840 hc         1 MOL       0.000000
     31 H12         32.4930    38.8410    26.1840 hc         1 MOL       0.000000
     32 H13         33.7730    36.8130    27.3650 hc         1 MOL       0.000000
     33 H14         32.3420    35.9810    26.7440 hc         1 MOL       0.000000
     34 H15         34.6030    35.2310    25.5550 ho         1 MOL       0.000000
@<TRIPOS>BOND
     1     1    14 1   
     2     1     9 1   
     3     2     4 ar  
     4     2     1 1   
     5     3     2 ar  
     6     3    20 1   
     7     4     8 1   
     8     5     4 ar  
     9     5    21 1   
    10     6     5 ar  
    11     6    22 1   
    12     7     6 ar  
    13     7     3 ar  
    14     7    23 1   
    15     8     9 ar  
    16     8    11 ar  
    17     9    10 ar  
    18    10    13 ar  
    19    10    24 1   
    20    11    12 ar  
    21    11    25 1   
    22    12    13 ar  
    23    12    26 1   
    24    13    27 1   
    25    14    15 1   
    26    14    28 1   
    27    14    29 1   
    28    15    30 1   
    29    15    31 1   
    30    16    15 1   
    31    16    32 1   
    32    16    33 1   
    33    17    16 1   
    34    18    17 1   
    35    18    34 1   
    36    19    17 2   
@<TRIPOS>SUBSTRUCTURE
     1 MOL         1 TEMP              0 ****  ****    0 ROOT
