@<TRIPOS>MOLECULE
MOL
   34    36     1     0     0
SMALL
No Charge or Current Charge


@<TRIPOS>ATOM
      1 N1          30.5600    44.0080    33.7750 na         1 MOL       0.000000
      2 C1          29.8950    43.2380    34.7000 ca         1 MOL       0.000000
      3 C2          29.0560    42.1240    34.6530 ca         1 MOL       0.000000
      4 C3          30.2180    43.7810    36.0390 cp         1 MOL       0.000000
      5 C4          29.7220    43.2450    37.2200 ca         1 MOL       0.000000
      6 C5          28.8900    42.1220    37.1070 ca         1 MOL       0.000000
      7 C6          28.5620    41.5820    35.8520 ca         1 MOL       0.000000
      8 C7          31.0910    44.9180    35.8190 cp         1 MOL       0.000000
      9 C8          31.2770    45.0190    34.3580 ca         1 MOL       0.000000
     10 C9          32.1010    46.0490    33.8890 ca         1 MOL       0.000000
     11 C10         31.6820    45.7900    36.7330 ca         1 MOL       0.000000
     12 C11         32.4850    46.8050    36.1980 ca         1 MOL       0.000000
     13 C12         32.6840    46.9220    34.8150 ca         1 MOL       0.000000
     14 C13         30.4740    43.8220    32.3180 c3         1 MOL       0.000000
     15 C14         29.0850    44.1570    31.7460 c3         1 MOL       0.000000
     16 C15         28.6950    43.2810    30.5400 c3         1 MOL       0.000000
     17 C16         27.9990    42.0050    30.9590 c          1 MOL       0.000000
     18 O1          27.0740    42.0220    31.7580 oh         1 MOL       0.000000
     19 O2          28.3770    40.8310    30.4620 o          1 MOL       0.000000
     20 H1          28.8010    41.7020    33.7460 ha         1 MOL       0.000000
     21 H2          29.9550    43.6540    38.1380 ha         1 MOL       0.000000
     22 H3          28.5120    41.6840    37.9610 ha         1 MOL       0.000000
     23 H4          27.9380    40.7610    35.8090 ha         1 MOL       0.000000
     24 H5          32.2760    46.1630    32.8780 ha         1 MOL       0.000000
     25 H6          31.5350    45.6920    37.7500 ha         1 MOL       0.000000
     26 H7          32.9390    47.4800    36.8340 ha         1 MOL       0.000000
     27 H8          33.2860    47.6840    34.4650 ha         1 MOL       0.000000
     28 H9          31.1970    44.4580    31.8510 h1         1 MOL       0.000000
     29 H10         30.6600    42.7880    32.1180 h1         1 MOL       0.000000
     30 H11         28.3570    44.0160    32.5170 hc         1 MOL       0.000000
     31 H12         29.1190    45.1700    31.4040 hc         1 MOL       0.000000
     32 H13         28.0380    43.8400    29.9070 hc         1 MOL       0.000000
     33 H14         29.5940    43.0100    30.0270 hc         1 MOL       0.000000
     34 H15         26.7860    42.8350    32.1240 ho         1 MOL       0.000000
@<TRIPOS>BOND
     1     1     9 1   
     2     1     2 1   
     3     2     4 ar  
     4     3     2 ar  
     5     3     7 ar  
     6     3    20 1   
     7     4     5 ar  
     8     5    21 1   
     9     6     5 ar  
    10     6    22 1   
    11     7     6 ar  
    12     7    23 1   
    13     8     4 1   
    14     8    11 ar  
    15     9     8 ar  
    16    10     9 ar  
    17    10    13 ar  
    18    10    24 1   
    19    11    25 1   
    20    12    11 ar  
    21    12    26 1   
    22    13    12 ar  
    23    13    27 1   
    24    14     1 1   
    25    14    28 1   
    26    14    29 1   
    27    15    14 1   
    28    15    30 1   
    29    15    31 1   
    30    16    17 1   
    31    16    15 1   
    32    16    32 1   
    33    16    33 1   
    34    17    18 1   
    35    18    34 1   
    36    19    17 2   
@<TRIPOS>SUBSTRUCTURE
     1 MOL         1 TEMP              0 ****  ****    0 ROOT
