@<TRIPOS>MOLECULE
MOL
   25    22     1     0     0
SMALL
No Charge or Current Charge


@<TRIPOS>ATOM
      1 O1           8.6350    12.9790    24.9500 o          1 MOL       0.000000
      2 C1           9.5910    13.7520    24.9670 c          1 MOL       0.000000
      3 C2           9.8050    14.6840    26.1600 c1         1 MOL       0.000000
      4 H1          10.5050    14.2340    26.8880 ha         1 MOL       0.000000
      5 C3           8.4730    15.0870    26.7960 c3         1 MOL       0.000000
      6 C4           8.9170    16.3220    27.5840 c3         1 MOL       0.000000
      7 H2           9.5760    16.0000    28.4120 hc         1 MOL       0.000000
      8 H3           8.1120    16.9200    28.0370 hc         1 MOL       0.000000
      9 C5           9.7150    17.0930    26.5280 c3         1 MOL       0.000000
     10 H4          10.5050    17.7560    26.9060 h1         1 MOL       0.000000
     11 H5           9.0530    17.6840    25.8730 h1         1 MOL       0.000000
     12 N1          10.3190    15.9950    25.7370 n          1 MOL       0.000000
     13 C6          11.1860    16.0620    24.6380 c          1 MOL       0.000000
     14 O2          11.6100    17.1540    24.2590 o          1 MOL       0.000000
     15 C7          11.5960    14.7920    23.8870 c1         1 MOL       0.000000
     16 H6          12.4900    14.3640    24.3720 ha         1 MOL       0.000000
     17 H7          11.8410    15.1010    22.8630 ha         1 MOL       0.000000
     18 N2          10.4860    13.8100    23.8900 n          1 MOL       0.000000
     19 H8          10.3700    13.1650    23.0950 hn         1 MOL       0.000000
     20 H9           9.7360    14.3660    25.7840 h5         1 MOL       0.000000
     21 H10          7.8340    15.3880    25.9920 hc         1 MOL       0.000000
     22 H11          7.9410    14.4220    27.4440 hc         1 MOL       0.000000
     23 H12          9.3330    14.5880    26.4010 hc         1 MOL       0.000000
     24 H13         11.4680    15.1990    24.1480 h5         1 MOL       0.000000
     25 H14         11.2220    14.4640    23.8930 hn         1 MOL       0.000000
@<TRIPOS>BOND
     1     1     2 2   
     2     2    20 1   
     3     3     4 1   
     4     5     6 1   
     5     5    21 1   
     6     5    22 1   
     7     5    23 1   
     8     6     8 1   
     9     6     7 1   
    10     9    10 1   
    11     9     6 1   
    12    11     9 1   
    13    12     3 1   
    14    12     9 1   
    15    13    12 1   
    16    13    24 1   
    17    14    13 2   
    18    15    16 1   
    19    17    15 1   
    20    18     2 1   
    21    18    25 1   
    22    19    18 1   
@<TRIPOS>SUBSTRUCTURE
     1 MOL         1 TEMP              0 ****  ****    0 ROOT
