@<TRIPOS>MOLECULE
MOL
   25    22     1     0     0
SMALL
No Charge or Current Charge


@<TRIPOS>ATOM
      1 O1           8.7350    15.0770    27.3980 o          1 MOL       0.000000
      2 C1           9.4840    14.4150    26.6810 c          1 MOL       0.000000
      3 C2          10.6520    15.0900    25.9610 c1         1 MOL       0.000000
      4 H1          11.5820    14.9970    26.5520 ha         1 MOL       0.000000
      5 C3          10.3220    16.5400    25.6050 c3         1 MOL       0.000000
      6 C4          11.3820    16.7980    24.5310 c3         1 MOL       0.000000
      7 H2          12.3800    16.8120    25.0090 hc         1 MOL       0.000000
      8 H3          11.2870    17.7450    23.9780 hc         1 MOL       0.000000
      9 C5          11.2280    15.5630    23.6390 c3         1 MOL       0.000000
     10 H4          12.1220    15.2540    23.0800 h1         1 MOL       0.000000
     11 H5          10.3980    15.6840    22.9220 h1         1 MOL       0.000000
     12 N1          10.8660    14.5160    24.6240 n          1 MOL       0.000000
     13 C6          10.6190    13.1520    24.4220 c          1 MOL       0.000000
     14 O2          10.7740    12.6610    23.3040 o          1 MOL       0.000000
     15 C7          10.1350    12.2670    25.5740 c1         1 MOL       0.000000
     16 H6          11.0130    11.8710    26.1130 ha         1 MOL       0.000000
     17 H7           9.5760    11.4390    25.1170 ha         1 MOL       0.000000
     18 N2           9.2700    13.0430    26.4930 n          1 MOL       0.000000
     19 H8           8.5050    12.5720    26.9980 hn         1 MOL       0.000000
     20 H9          10.2800    14.8760    26.2120 h5         1 MOL       0.000000
     21 H10          9.3520    16.5240    25.1530 hc         1 MOL       0.000000
     22 H11         10.3610    17.3180    26.3390 hc         1 MOL       0.000000
     23 H12         10.5120    15.5970    26.0740 hc         1 MOL       0.000000
     24 H13         10.3080    12.5600    25.2080 h5         1 MOL       0.000000
     25 H14          9.8480    12.5310    25.8810 hn         1 MOL       0.000000
@<TRIPOS>BOND
     1     2     1 2   
     2     2    20 1   
     3     3     4 1   
     4     5    21 1   
     5     5    22 1   
     6     5    23 1   
     7     6     7 1   
     8     6     5 1   
     9     8     6 1   
    10     9     6 1   
    11     9    12 1   
    12    10     9 1   
    13    11     9 1   
    14    12     3 1   
    15    13    12 1   
    16    13    24 1   
    17    14    13 2   
    18    15    16 1   
    19    17    15 1   
    20    18     2 1   
    21    18    19 1   
    22    18    25 1   
@<TRIPOS>SUBSTRUCTURE
     1 MOL         1 TEMP              0 ****  ****    0 ROOT
