@<TRIPOS>MOLECULE
MOL
   25    22     1     0     0
SMALL
No Charge or Current Charge


@<TRIPOS>ATOM
      1 O1           7.8650    14.3850    27.4740 o          1 MOL       0.000000
      2 C1           8.7240    15.2060    27.1550 c          1 MOL       0.000000
      3 C2           9.4210    15.1000    25.7990 c1         1 MOL       0.000000
      4 H1           8.9200    15.7400    25.0500 ha         1 MOL       0.000000
      5 C3           9.5370    13.6440    25.3460 c3         1 MOL       0.000000
      6 C4          10.6360    13.7800    24.2890 c3         1 MOL       0.000000
      7 H2          10.2350    14.3460    23.4270 hc         1 MOL       0.000000
      8 H3          11.0370    12.8380    23.8870 hc         1 MOL       0.000000
      9 C5          11.6850    14.6080    25.0380 c3         1 MOL       0.000000
     10 H4          12.3470    15.2270    24.4160 h1         1 MOL       0.000000
     11 H5          12.3140    13.9730    25.6840 h1         1 MOL       0.000000
     12 N1          10.8400    15.4770    25.8900 n          1 MOL       0.000000
     13 C6          11.2200    16.4810    26.7910 c          1 MOL       0.000000
     14 O2          12.4060    16.7940    26.8930 o          1 MOL       0.000000
     15 C7          10.1770    17.1780    27.6690 c1         1 MOL       0.000000
     16 H6           9.7670    18.0420    27.1170 ha         1 MOL       0.000000
     17 H7          10.7070    17.5280    28.5640 ha         1 MOL       0.000000
     18 N2           9.0940    16.2350    28.0320 n          1 MOL       0.000000
     19 H8           8.6090    16.3350    28.9350 hn         1 MOL       0.000000
     20 H9           9.1780    15.1360    26.2310 h5         1 MOL       0.000000
     21 H10          8.7250    13.0740    24.9450 hc         1 MOL       0.000000
     22 H11          9.1870    14.6160    25.6240 hc         1 MOL       0.000000
     23 H12          9.9310    13.1470    26.2080 hc         1 MOL       0.000000
     24 H13         10.5080    16.9560    27.3670 h5         1 MOL       0.000000
     25 H14          9.8140    16.8590    27.7860 hn         1 MOL       0.000000
@<TRIPOS>BOND
     1     2     1 2   
     2     2    18 1   
     3     2    20 1   
     4     3    12 1   
     5     4     3 1   
     6     5    21 1   
     7     5    22 1   
     8     5    23 1   
     9     6     9 1   
    10     6     5 1   
    11     7     6 1   
    12     8     6 1   
    13     9    11 1   
    14     9    12 1   
    15    10     9 1   
    16    12    13 1   
    17    13    14 2   
    18    13    24 1   
    19    15    17 1   
    20    16    15 1   
    21    18    19 1   
    22    18    25 1   
@<TRIPOS>SUBSTRUCTURE
     1 MOL         1 TEMP              0 ****  ****    0 ROOT
