@<TRIPOS>MOLECULE
MOL
   25    25     1     0     0
SMALL
No Charge or Current Charge


@<TRIPOS>ATOM
      1 C1          18.4180    29.1460    17.8420 c3         1 MOL       0.000000
      2 N1          18.0180    30.3610    17.4150 nh         1 MOL       0.000000
      3 C2          18.8380    31.2550    16.7430 cc         1 MOL       0.000000
      4 N2          18.3930    32.3730    16.3750 nc         1 MOL       0.000000
      5 C3          19.1480    33.3210    15.7000 cd         1 MOL       0.000000
      6 N3          18.6900    34.4020    15.3530 nh         1 MOL       0.000000
      7 H1          19.2860    35.0780    14.8540 hn         1 MOL       0.000000
      8 H2          17.7090    34.6360    15.5600 hn         1 MOL       0.000000
      9 C4          20.1590    30.9100    16.4790 cd         1 MOL       0.000000
     10 C5          21.0140    31.8050    15.7960 c          1 MOL       0.000000
     11 N4          20.4350    32.9230    15.4700 n          1 MOL       0.000000
     12 H3          21.0270    33.6010    14.9710 hn         1 MOL       0.000000
     13 O1          22.1870    31.5150    15.5520 o          1 MOL       0.000000
     14 N5          20.6500    29.6120    16.9130 nh         1 MOL       0.000000
     15 C6          19.9470    28.7340    17.5410 c1         1 MOL       0.000000
     16 H4          17.0450    30.6420    17.5990 hn         1 MOL       0.000000
     17 C7          20.3440    27.4240    18.0110 c3         1 MOL       0.000000
     18 O2          20.0760    26.4290    17.0360 oh         1 MOL       0.000000
     19 H5          19.1820    26.6370    16.5690 ho         1 MOL       0.000000
     20 H6          19.4450    28.9960    17.5810 h1         1 MOL       0.000000
     21 H7          17.8180    28.3900    17.3790 h1         1 MOL       0.000000
     22 H8          18.3080    29.0870    18.9050 h1         1 MOL       0.000000
     23 H9          21.5870    29.3880    16.7120 hn         1 MOL       0.000000
     24 H10         21.3930    27.4320    18.2230 h1         1 MOL       0.000000
     25 H11         19.7840    27.1950    18.8930 h1         1 MOL       0.000000
@<TRIPOS>BOND
     1     1    20 1   
     2     1    21 1   
     3     1    22 1   
     4     2    16 1   
     5     2     1 1   
     6     3     2 1   
     7     4     3 1   
     8     5     4 2   
     9     6     8 1   
    10     6     5 1   
    11     7     6 1   
    12     9     3 2   
    13     9    14 1   
    14    10     9 1   
    15    11     5 1   
    16    11    10 1   
    17    12    11 1   
    18    13    10 2   
    19    14    15 3   
    20    14    23 1   
    21    15    17 1   
    22    17    24 1   
    23    17    25 1   
    24    18    17 1   
    25    19    18 1   
@<TRIPOS>SUBSTRUCTURE
     1 MOL         1 TEMP              0 ****  ****    0 ROOT
