@<TRIPOS>MOLECULE
MOL
   25    25     1     0     0
SMALL
No Charge or Current Charge


@<TRIPOS>ATOM
      1 C1          19.5180    31.6740    14.9920 c3         1 MOL       0.000000
      2 N1          20.0130    30.4270    15.1250 nh         1 MOL       0.000000
      3 C2          19.6150    29.5350    16.1100 cc         1 MOL       0.000000
      4 N2          20.1230    28.3860    16.1700 nc         1 MOL       0.000000
      5 C3          19.7790    27.4390    17.1250 cd         1 MOL       0.000000
      6 N3          20.2890    26.3270    17.1610 nh         1 MOL       0.000000
      7 H1          20.0050    25.6530    17.8870 hn         1 MOL       0.000000
      8 H2          21.0020    26.0640    16.4670 hn         1 MOL       0.000000
      9 C4          18.6500    29.9210    17.0340 cd         1 MOL       0.000000
     10 C5          18.2270    29.0300    18.0480 c          1 MOL       0.000000
     11 N4          18.8270    27.8770    18.0020 n          1 MOL       0.000000
     12 H3          18.5460    27.2010    18.7260 hn         1 MOL       0.000000
     13 O1          17.3730    29.3540    18.8750 o          1 MOL       0.000000
     14 N5          18.0770    31.2540    16.9430 nh         1 MOL       0.000000
     15 C6          18.3980    32.1310    16.0570 c1         1 MOL       0.000000
     16 H4          20.7290    30.1170    14.4530 hn         1 MOL       0.000000
     17 C7          17.8880    33.4750    15.8860 c3         1 MOL       0.000000
     18 O2          18.9140    34.3620    15.4690 oh         1 MOL       0.000000
     19 H5          19.4710    33.9170    14.7250 ho         1 MOL       0.000000
     20 H6          19.9860    32.1570    14.1600 h1         1 MOL       0.000000
     21 H7          19.7130    32.2320    15.8840 h1         1 MOL       0.000000
     22 H8          18.4620    31.6230    14.8270 h1         1 MOL       0.000000
     23 H9          17.3940    31.5040    17.6070 hn         1 MOL       0.000000
     24 H10         17.1140    33.4640    15.1470 h1         1 MOL       0.000000
     25 H11         17.5060    33.8150    16.8260 h1         1 MOL       0.000000
@<TRIPOS>BOND
     1     1     2 1   
     2     1    20 1   
     3     1    21 1   
     4     1    22 1   
     5     2     3 1   
     6     3     4 1   
     7     3     9 2   
     8     4     5 2   
     9     5     6 1   
    10     5    11 1   
    11     6     7 1   
    12     8     6 1   
    13     9    10 1   
    14    10    13 2   
    15    11    10 1   
    16    11    12 1   
    17    14     9 1   
    18    14    23 1   
    19    15    14 3   
    20    16     2 1   
    21    17    15 1   
    22    17    24 1   
    23    17    25 1   
    24    18    17 1   
    25    19    18 1   
@<TRIPOS>SUBSTRUCTURE
     1 MOL         1 TEMP              0 ****  ****    0 ROOT
