@<TRIPOS>MOLECULE
MOL
   25    25     1     0     0
SMALL
No Charge or Current Charge


@<TRIPOS>ATOM
      1 C1          18.4940    32.0710    16.5690 c3         1 MOL       0.000000
      2 N1          18.3870    30.7380    16.7400 nh         1 MOL       0.000000
      3 C2          19.4670    29.8670    16.7430 cc         1 MOL       0.000000
      4 N2          19.2870    28.6330    16.9090 nc         1 MOL       0.000000
      5 C3          20.3130    27.6990    16.9240 cd         1 MOL       0.000000
      6 N3          20.1110    26.5020    17.0870 nh         1 MOL       0.000000
      7 H1          20.9030    25.8420    17.0920 hn         1 MOL       0.000000
      8 H2          19.1510    26.1560    17.2200 hn         1 MOL       0.000000
      9 C4          20.7510    30.3670    16.5610 cd         1 MOL       0.000000
     10 C5          21.8680    29.4990    16.5610 c          1 MOL       0.000000
     11 N4          21.5500    28.2510    16.7410 n          1 MOL       0.000000
     12 H3          22.3370    27.5880    16.7460 hn         1 MOL       0.000000
     13 O1          23.0140    29.9240    16.4020 o          1 MOL       0.000000
     14 N5          20.9330    31.7970    16.3730 nh         1 MOL       0.000000
     15 C6          19.9790    32.6620    16.3580 c1         1 MOL       0.000000
     16 H4          17.4460    30.3420    16.8760 hn         1 MOL       0.000000
     17 C7          20.0590    34.0960    16.1790 c3         1 MOL       0.000000
     18 O2          18.9460    34.5820    15.4450 oh         1 MOL       0.000000
     19 H5          18.7420    35.5500    15.7320 ho         1 MOL       0.000000
     20 H6          19.5240    32.3330    16.4410 h1         1 MOL       0.000000
     21 H7          18.1030    32.5730    17.4290 h1         1 MOL       0.000000
     22 H8          17.9410    32.3650    15.7020 h1         1 MOL       0.000000
     23 H9          21.8520    32.1280    16.2480 hn         1 MOL       0.000000
     24 H10         20.0770    34.5680    17.1390 h1         1 MOL       0.000000
     25 H11         20.9510    34.3210    15.6330 h1         1 MOL       0.000000
@<TRIPOS>BOND
     1     1     2 1   
     2     1    20 1   
     3     1    21 1   
     4     1    22 1   
     5     2     3 1   
     6     2    16 1   
     7     3     4 1   
     8     4     5 2   
     9     5     6 1   
    10     6     7 1   
    11     6     8 1   
    12     9     3 2   
    13    10     9 1   
    14    10    11 1   
    15    11    12 1   
    16    11     5 1   
    17    13    10 2   
    18    14     9 1   
    19    14    23 1   
    20    15    14 3   
    21    17    15 1   
    22    17    24 1   
    23    17    25 1   
    24    18    19 1   
    25    18    17 1   
@<TRIPOS>SUBSTRUCTURE
     1 MOL         1 TEMP              0 ****  ****    0 ROOT
