@<TRIPOS>MOLECULE
MOL
   54    58     1     0     0
SMALL
No Charge or Current Charge


@<TRIPOS>ATOM
      1 O1           3.2300    34.5650    -4.2980 o          1 MOL       0.000000
      2 C1           3.2490    33.7730    -3.3730 c          1 MOL       0.000000
      3 N1           2.0720    33.1840    -2.8580 n          1 MOL       0.000000
      4 C2           2.3960    32.1580    -1.9230 c          1 MOL       0.000000
      5 O2           1.5820    31.4860    -1.3090 o          1 MOL       0.000000
      6 C3           3.8490    32.0450    -1.8330 c3         1 MOL       0.000000
      7 C4           4.4750    30.9050    -2.6360 c3         1 MOL       0.000000
      8 N2           5.0190    31.3170    -4.0130 n3         1 MOL       0.000000
      9 C5           6.1660    30.3770    -4.1660 c3         1 MOL       0.000000
     10 C6           5.7890    29.1460    -3.2780 c3         1 MOL       0.000000
     11 C7           5.2140    29.7940    -2.0100 c3         1 MOL       0.000000
     12 C8           5.5180    32.6870    -3.5600 c3         1 MOL       0.000000
     13 C9           4.4290    33.2370    -2.6590 c3         1 MOL       0.000000
     14 C10          6.1070    33.5660    -4.6220 ca         1 MOL       0.000000
     15 C11          7.1980    34.3580    -4.2790 ca         1 MOL       0.000000
     16 C12          7.8170    35.1430    -5.2420 ca         1 MOL       0.000000
     17 C13          7.3110    35.1230    -6.5720 ca         1 MOL       0.000000
     18 C14          6.2170    34.3250    -6.9230 ca         1 MOL       0.000000
     19 C15          5.6030    33.5340    -5.9460 ca         1 MOL       0.000000
     20 C16          7.9640    35.9640    -7.5620 ce         1 MOL       0.000000
     21 N3           9.3140    36.0460    -7.6790 nh         1 MOL       0.000000
     22 H1           9.7320    36.6560    -8.3960 hn         1 MOL       0.000000
     23 H2           9.9190    35.4990    -7.0510 hn         1 MOL       0.000000
     24 N4           7.2530    36.7290    -8.4290 nh         1 MOL       0.000000
     25 H3           7.7420    37.2850    -9.1460 hn         1 MOL       0.000000
     26 H4           6.2250    36.7540    -8.3710 hn         1 MOL       0.000000
     27 C17          0.7640    33.4660    -3.4480 c3         1 MOL       0.000000
     28 C18         -0.0950    34.2130    -2.4650 ca         1 MOL       0.000000
     29 C19          0.1810    35.5700    -2.2090 ca         1 MOL       0.000000
     30 C20         -0.6350    36.2750    -1.3240 ca         1 MOL       0.000000
     31 C21         -1.7010    35.5970    -0.7190 ca         1 MOL       0.000000
     32 F1          -2.4600    36.3380     0.1070 f          1 MOL       0.000000
     33 C22         -2.0090    34.2450    -0.9280 ca         1 MOL       0.000000
     34 C23         -1.1700    33.5430    -1.8300 ca         1 MOL       0.000000
     35 H5           4.0500    31.9560    -0.7860 hc         1 MOL       0.000000
     36 H6           3.5560    30.3690    -2.7480 h1         1 MOL       0.000000
     37 H7           7.0730    30.8280    -3.8210 h1         1 MOL       0.000000
     38 H8           6.3340    30.1040    -5.1870 h1         1 MOL       0.000000
     39 H9           6.6530    28.5580    -3.0500 hc         1 MOL       0.000000
     40 H10          5.1040    28.4770    -3.7560 hc         1 MOL       0.000000
     41 H11          5.9830    30.1430    -1.3530 hc         1 MOL       0.000000
     42 H12          4.6330    29.1480    -1.3850 hc         1 MOL       0.000000
     43 H13          6.4210    32.6150    -2.9910 h1         1 MOL       0.000000
     44 H14          4.8920    34.0210    -2.0970 hc         1 MOL       0.000000
     45 H15          7.5470    34.3620    -3.3080 ha         1 MOL       0.000000
     46 H16          8.6300    35.7310    -4.9980 ha         1 MOL       0.000000
     47 H17          5.8660    34.3200    -7.8940 ha         1 MOL       0.000000
     48 H18          4.7960    32.9370    -6.1860 ha         1 MOL       0.000000
     49 H19          0.2860    32.5440    -3.7070 h1         1 MOL       0.000000
     50 H20          0.8960    34.0660    -4.3240 h1         1 MOL       0.000000
     51 H21          0.9770    36.0370    -2.6700 ha         1 MOL       0.000000
     52 H22         -0.4580    37.2710    -1.1200 ha         1 MOL       0.000000
     53 H23         -2.8020    33.7870    -0.4520 ha         1 MOL       0.000000
     54 H24         -1.3420    32.5440    -2.0240 ha         1 MOL       0.000000
@<TRIPOS>BOND
     1     1     2 2   
     2     2     3 1   
     3     2    13 1   
     4     3     4 1   
     5     4     6 1   
     6     4     5 2   
     7     6    13 1   
     8     6    35 1   
     9     7     8 1   
    10     7    11 1   
    11     7     6 1   
    12     7    36 1   
    13     8    12 1   
    14     9     8 1   
    15     9    10 1   
    16     9    37 1   
    17     9    38 1   
    18    10    11 1   
    19    10    39 1   
    20    10    40 1   
    21    11    41 1   
    22    11    42 1   
    23    12    13 1   
    24    12    43 1   
    25    13    44 1   
    26    14    15 ar  
    27    14    12 1   
    28    15    45 1   
    29    16    15 ar  
    30    16    46 1   
    31    17    16 ar  
    32    18    17 ar  
    33    18    19 ar  
    34    18    47 1   
    35    19    14 ar  
    36    19    48 1   
    37    20    17 1   
    38    21    20 2   
    39    21    23 1   
    40    22    21 1   
    41    24    26 1   
    42    24    20 1   
    43    25    24 1   
    44    27     3 1   
    45    27    28 1   
    46    27    49 1   
    47    27    50 1   
    48    28    29 ar  
    49    28    34 ar  
    50    29    30 ar  
    51    29    51 1   
    52    30    31 ar  
    53    30    52 1   
    54    31    32 1   
    55    33    31 ar  
    56    33    53 1   
    57    34    33 ar  
    58    34    54 1   
@<TRIPOS>SUBSTRUCTURE
     1 MOL         1 TEMP              0 ****  ****    0 ROOT
