@<TRIPOS>MOLECULE
MOL
   54    58     1     0     0
SMALL
No Charge or Current Charge


@<TRIPOS>ATOM
      1 O1           7.3370    31.7040    -4.7500 o          1 MOL       0.000000
      2 C1           6.1320    31.5290    -4.7050 c          1 MOL       0.000000
      3 N1           5.5370    30.5830    -3.8400 n          1 MOL       0.000000
      4 C2           4.1190    30.7250    -3.8470 c          1 MOL       0.000000
      5 O2           3.3420    30.0340    -3.2060 o          1 MOL       0.000000
      6 C3           3.7600    31.8290    -4.7330 c3         1 MOL       0.000000
      7 C4           3.4520    33.1580    -4.0450 c3         1 MOL       0.000000
      8 N2           4.6320    34.1410    -3.9960 n3         1 MOL       0.000000
      9 C5           3.9210    35.4500    -4.0640 c3         1 MOL       0.000000
     10 C6           2.5000    35.1600    -3.4800 c3         1 MOL       0.000000
     11 C7           2.1320    33.8110    -4.1150 c3         1 MOL       0.000000
     12 C8           5.1790    33.7680    -5.3720 c3         1 MOL       0.000000
     13 C9           5.0810    32.2550    -5.4500 c3         1 MOL       0.000000
     14 C10          6.4500    34.4440    -5.7900 ca         1 MOL       0.000000
     15 C11          6.5180    34.9600    -7.0800 ca         1 MOL       0.000000
     16 C12          7.6500    35.6490    -7.4940 ca         1 MOL       0.000000
     17 C13          8.7290    35.8070    -6.5800 ca         1 MOL       0.000000
     18 C14          8.6630    35.2950    -5.2790 ca         1 MOL       0.000000
     19 C15          7.5160    34.6070    -4.8710 ca         1 MOL       0.000000
     20 C16          9.9110    36.5190    -7.0380 ce         1 MOL       0.000000
     21 N3          10.8280    37.0440    -6.1860 nh         1 MOL       0.000000
     22 H1          11.6500    37.5400    -6.5580 hn         1 MOL       0.000000
     23 H2          10.7000    36.9460    -5.1690 hn         1 MOL       0.000000
     24 N4          10.1640    36.7060    -8.3590 nh         1 MOL       0.000000
     25 H3          10.0490    37.6400    -8.7780 hn         1 MOL       0.000000
     26 H4          10.4700    35.9140    -8.9420 hn         1 MOL       0.000000
     27 C17          6.3450    29.7900    -2.9160 c3         1 MOL       0.000000
     28 C18          6.7420    28.4910    -3.5610 ca         1 MOL       0.000000
     29 C19          8.1040    28.1360    -3.6020 ca         1 MOL       0.000000
     30 C20          8.4740    26.9170    -4.1690 ca         1 MOL       0.000000
     31 C21          7.4660    26.0900    -4.6830 ca         1 MOL       0.000000
     32 F1           7.8860    24.9210    -5.1970 f          1 MOL       0.000000
     33 C22          6.0990    26.4020    -4.6800 ca         1 MOL       0.000000
     34 C23          5.7410    27.6460    -4.1000 ca         1 MOL       0.000000
     35 H5           2.9250    31.4660    -5.2950 hc         1 MOL       0.000000
     36 H6           3.2990    32.7180    -3.0820 h1         1 MOL       0.000000
     37 H7           3.8510    35.7890    -5.0760 h1         1 MOL       0.000000
     38 H8           4.4330    36.2180    -3.5220 h1         1 MOL       0.000000
     39 H9           2.5310    35.0870    -2.4130 hc         1 MOL       0.000000
     40 H10          1.7920    35.9330    -3.6930 hc         1 MOL       0.000000
     41 H11          1.3940    33.2870    -3.5450 hc         1 MOL       0.000000
     42 H12          1.6950    33.8640    -5.0900 hc         1 MOL       0.000000
     43 H13          4.5900    34.1850    -6.1620 h1         1 MOL       0.000000
     44 H14          5.1530    32.0160    -6.4900 hc         1 MOL       0.000000
     45 H15          5.7270    34.8310    -7.7300 ha         1 MOL       0.000000
     46 H16          7.7080    36.0390    -8.4470 ha         1 MOL       0.000000
     47 H17          9.4530    35.4240    -4.6270 ha         1 MOL       0.000000
     48 H18          7.4470    34.2240    -3.9150 ha         1 MOL       0.000000
     49 H19          5.7760    29.5870    -2.0330 h1         1 MOL       0.000000
     50 H20          7.2280    30.3390    -2.6620 h1         1 MOL       0.000000
     51 H21          8.8200    28.7710    -3.2170 ha         1 MOL       0.000000
     52 H22          9.4650    26.6310    -4.2090 ha         1 MOL       0.000000
     53 H23          5.3930    25.7630    -5.0770 ha         1 MOL       0.000000
     54 H24          4.7510    27.9360    -4.0710 ha         1 MOL       0.000000
@<TRIPOS>BOND
     1     1     2 2   
     2     2     3 1   
     3     3    27 1   
     4     4     3 1   
     5     4     5 2   
     6     6    13 1   
     7     6     4 1   
     8     6    35 1   
     9     7     6 1   
    10     7     8 1   
    11     7    36 1   
    12     8    12 1   
    13     9     8 1   
    14     9    10 1   
    15     9    37 1   
    16     9    38 1   
    17    10    39 1   
    18    10    40 1   
    19    11     7 1   
    20    11    10 1   
    21    11    41 1   
    22    11    42 1   
    23    12    13 1   
    24    12    43 1   
    25    13     2 1   
    26    13    44 1   
    27    14    12 1   
    28    14    19 ar  
    29    15    14 ar  
    30    15    45 1   
    31    16    15 ar  
    32    16    17 ar  
    33    16    46 1   
    34    17    18 ar  
    35    18    19 ar  
    36    18    47 1   
    37    19    48 1   
    38    20    17 1   
    39    20    21 2   
    40    21    23 1   
    41    22    21 1   
    42    24    20 1   
    43    25    24 1   
    44    26    24 1   
    45    27    49 1   
    46    27    50 1   
    47    28    27 1   
    48    29    28 ar  
    49    29    51 1   
    50    30    29 ar  
    51    30    52 1   
    52    31    33 ar  
    53    31    30 ar  
    54    32    31 1   
    55    33    34 ar  
    56    33    53 1   
    57    34    28 ar  
    58    34    54 1   
@<TRIPOS>SUBSTRUCTURE
     1 MOL         1 TEMP              0 ****  ****    0 ROOT
