@<TRIPOS>MOLECULE
MOL
   52    51     1     0     0
SMALL
No Charge or Current Charge


@<TRIPOS>ATOM
      1 N1          11.4010    24.5270    33.9960 n          1 MOL       0.000000
      2 H1          11.8080    25.0910    34.7560 hn         1 MOL       0.000000
      3 C1          10.1620    24.7610    33.5360 c          1 MOL       0.000000
      4 O1           9.6030    24.1180    32.6480 o          1 MOL       0.000000
      5 C2           9.4720    25.9400    34.2050 c3         1 MOL       0.000000
      6 C3           8.5750    25.4180    35.3260 c3         1 MOL       0.000000
      7 C4           7.1220    25.4140    34.9420 c          1 MOL       0.000000
      8 N2           6.7690    26.2070    33.9180 n          1 MOL       0.000000
      9 O2           5.4650    25.9610    33.5540 oh         1 MOL       0.000000
     10 H2           7.3860    26.9000    33.4700 hn         1 MOL       0.000000
     11 O3           6.3150    24.7020    35.5350 o          1 MOL       0.000000
     12 O4           8.9910    24.1330    35.7630 oh         1 MOL       0.000000
     13 H3           8.4880    23.8830    36.6260 ho         1 MOL       0.000000
     14 C5          10.5200    26.9170    34.7540 c3         1 MOL       0.000000
     15 C6          10.5110    27.0620    36.2840 c3         1 MOL       0.000000
     16 C7          11.6240    26.2570    36.9260 c3         1 MOL       0.000000
     17 C8          10.6520    28.5320    36.6730 c3         1 MOL       0.000000
     18 C9          12.1420    23.4390    33.3740 c3         1 MOL       0.000000
     19 C10         13.3490    24.0040    32.6150 c3         1 MOL       0.000000
     20 C11         14.4760    22.9540    32.5790 c3         1 MOL       0.000000
     21 C12         12.9370    24.3710    31.1790 c3         1 MOL       0.000000
     22 C13         13.8460    25.2630    33.3470 c3         1 MOL       0.000000
     23 C14         12.5780    22.3990    34.3930 c          1 MOL       0.000000
     24 O5          13.1120    22.7390    35.4490 o          1 MOL       0.000000
     25 N3          12.3050    21.1300    34.0270 n          1 MOL       0.000000
     26 C15         12.7460    20.0520    34.9080 c3         1 MOL       0.000000
     27 H4          11.8000    20.9270    33.1530 hn         1 MOL       0.000000
     28 H5           8.8710    26.4650    33.4920 hc         1 MOL       0.000000
     29 H6           8.6790    26.0990    36.1450 h1         1 MOL       0.000000
     30 H7           5.2210    26.5390    32.8140 ho         1 MOL       0.000000
     31 H8          10.3370    27.8800    34.3250 hc         1 MOL       0.000000
     32 H9          11.4770    26.5190    34.4900 hc         1 MOL       0.000000
     33 H10          9.5760    26.6830    36.6410 hc         1 MOL       0.000000
     34 H11         12.5700    26.6200    36.5830 hc         1 MOL       0.000000
     35 H12         11.5190    25.2260    36.6580 hc         1 MOL       0.000000
     36 H13         11.5680    26.3570    37.9900 hc         1 MOL       0.000000
     37 H14         11.5880    28.9070    36.3150 hc         1 MOL       0.000000
     38 H15         10.6150    28.6240    37.7380 hc         1 MOL       0.000000
     39 H16          9.8520    29.0940    36.2380 hc         1 MOL       0.000000
     40 H17         11.4930    22.9440    32.6820 h1         1 MOL       0.000000
     41 H18         15.3160    23.3510    32.0490 hc         1 MOL       0.000000
     42 H19         14.1260    22.0720    32.0840 hc         1 MOL       0.000000
     43 H20         14.7680    22.7100    33.5790 hc         1 MOL       0.000000
     44 H21         13.7830    24.7640    30.6550 hc         1 MOL       0.000000
     45 H22         12.1610    25.1070    31.2080 hc         1 MOL       0.000000
     46 H23         12.5810    23.4970    30.6760 hc         1 MOL       0.000000
     47 H24         14.6890    25.6680    32.8280 hc         1 MOL       0.000000
     48 H25         14.1320    25.0060    34.3450 hc         1 MOL       0.000000
     49 H26         13.0620    25.9910    33.3770 hc         1 MOL       0.000000
     50 H27         12.4600    19.1100    34.4890 h1         1 MOL       0.000000
     51 H28         12.2900    20.1680    35.8690 h1         1 MOL       0.000000
     52 H29         13.8100    20.0880    35.0110 h1         1 MOL       0.000000
@<TRIPOS>BOND
     1     1     2 1   
     2     3     1 1   
     3     3     5 1   
     4     4     3 2   
     5     5    14 1   
     6     5     6 1   
     7     5    28 1   
     8     6    12 1   
     9     6    29 1   
    10     7     6 1   
    11     7    11 2   
    12     8     7 1   
    13     9     8 1   
    14     9    30 1   
    15    10     8 1   
    16    12    13 1   
    17    14    15 1   
    18    14    31 1   
    19    14    32 1   
    20    15    17 1   
    21    15    16 1   
    22    15    33 1   
    23    16    34 1   
    24    16    35 1   
    25    16    36 1   
    26    17    37 1   
    27    17    38 1   
    28    17    39 1   
    29    18     1 1   
    30    18    23 1   
    31    18    40 1   
    32    19    22 1   
    33    19    18 1   
    34    20    19 1   
    35    20    41 1   
    36    20    42 1   
    37    20    43 1   
    38    21    19 1   
    39    21    44 1   
    40    21    45 1   
    41    21    46 1   
    42    22    47 1   
    43    22    48 1   
    44    22    49 1   
    45    23    24 2   
    46    25    23 1   
    47    25    26 1   
    48    26    50 1   
    49    26    51 1   
    50    26    52 1   
    51    27    25 1   
@<TRIPOS>SUBSTRUCTURE
     1 MOL         1 TEMP              0 ****  ****    0 ROOT
