@<TRIPOS>MOLECULE
MOL
   52    51     1     0     0
SMALL
No Charge or Current Charge


@<TRIPOS>ATOM
      1 N1          11.9750    23.9040    34.0420 n          1 MOL       0.000000
      2 H1          12.4060    23.6460    33.1430 hn         1 MOL       0.000000
      3 C1          12.2520    23.2330    35.1710 c          1 MOL       0.000000
      4 O1          11.7610    23.4710    36.2740 o          1 MOL       0.000000
      5 C2          13.2730    22.1210    34.9880 c3         1 MOL       0.000000
      6 C3          12.5910    20.9290    34.3180 c3         1 MOL       0.000000
      7 C4          13.1800    19.6150    34.7500 c          1 MOL       0.000000
      8 N2          13.3010    19.4170    36.0720 n          1 MOL       0.000000
      9 O2          13.6690    18.1150    36.3240 oh         1 MOL       0.000000
     10 H2          13.1420    20.1350    36.7920 hn         1 MOL       0.000000
     11 O3          13.5140    18.7710    33.9210 o          1 MOL       0.000000
     12 O4          11.1870    20.9530    34.5280 oh         1 MOL       0.000000
     13 H3          10.7260    20.3500    33.8320 ho         1 MOL       0.000000
     14 C5          14.4500    22.6240    34.1420 c3         1 MOL       0.000000
     15 C6          14.3630    22.2540    32.6530 c3         1 MOL       0.000000
     16 C7          14.4980    23.4770    31.7670 c3         1 MOL       0.000000
     17 C8          15.4510    21.2420    32.2990 c3         1 MOL       0.000000
     18 C9          11.0370    25.0130    34.1450 c3         1 MOL       0.000000
     19 C10         11.6900    26.2940    33.6100 c3         1 MOL       0.000000
     20 C11         11.4580    26.3970    32.0910 c3         1 MOL       0.000000
     21 C12         11.0840    27.5210    34.3110 c3         1 MOL       0.000000
     22 C13         13.2020    26.2320    33.8950 c3         1 MOL       0.000000
     23 C14          9.7360    24.7210    33.4170 c          1 MOL       0.000000
     24 O5           9.7050    23.9200    32.4820 o          1 MOL       0.000000
     25 N3           8.6740    25.3930    33.9070 n          1 MOL       0.000000
     26 C15          7.3890    25.2320    33.2330 c3         1 MOL       0.000000
     27 H4           8.7670    26.0010    34.7330 hn         1 MOL       0.000000
     28 H5          13.6560    21.8160    35.9390 hc         1 MOL       0.000000
     29 H6          12.7720    21.0220    33.2670 h1         1 MOL       0.000000
     30 H7          13.7570    17.6360    35.4850 ho         1 MOL       0.000000
     31 H8          14.4870    23.6910    34.2210 hc         1 MOL       0.000000
     32 H9          15.3280    22.1480    34.5250 hc         1 MOL       0.000000
     33 H10         13.3990    21.8220    32.4810 hc         1 MOL       0.000000
     34 H11         15.4570    23.9260    31.9230 hc         1 MOL       0.000000
     35 H12         13.7300    24.1810    32.0110 hc         1 MOL       0.000000
     36 H13         14.4020    23.1870    30.7410 hc         1 MOL       0.000000
     37 H14         16.4130    21.6770    32.4720 hc         1 MOL       0.000000
     38 H15         15.3630    20.9700    31.2680 hc         1 MOL       0.000000
     39 H16         15.3390    20.3700    32.9090 hc         1 MOL       0.000000
     40 H17         10.7920    25.1490    35.1780 h1         1 MOL       0.000000
     41 H18         11.8810    25.5420    31.6070 hc         1 MOL       0.000000
     42 H19         11.9250    27.2850    31.7180 hc         1 MOL       0.000000
     43 H20         10.4070    26.4360    31.8920 hc         1 MOL       0.000000
     44 H21         11.5430    28.4100    33.9340 hc         1 MOL       0.000000
     45 H22         11.2550    27.4510    35.3650 hc         1 MOL       0.000000
     46 H23         10.0310    27.5560    34.1230 hc         1 MOL       0.000000
     47 H24         13.6220    25.3780    33.4070 hc         1 MOL       0.000000
     48 H25         13.3630    26.1550    34.9500 hc         1 MOL       0.000000
     49 H26         13.6710    27.1200    33.5260 hc         1 MOL       0.000000
     50 H27          7.5020    24.5650    32.4040 h1         1 MOL       0.000000
     51 H28          7.0490    26.1840    32.8810 h1         1 MOL       0.000000
     52 H29          6.6740    24.8300    33.9200 h1         1 MOL       0.000000
@<TRIPOS>BOND
     1     1    18 1   
     2     1     3 1   
     3     2     1 1   
     4     3     4 2   
     5     5     3 1   
     6     5    28 1   
     7     6    12 1   
     8     6     7 1   
     9     6     5 1   
    10     6    29 1   
    11     7     8 1   
    12     8     9 1   
    13     8    10 1   
    14     9    30 1   
    15    11     7 2   
    16    13    12 1   
    17    14     5 1   
    18    14    31 1   
    19    14    32 1   
    20    15    14 1   
    21    15    33 1   
    22    16    15 1   
    23    16    34 1   
    24    16    35 1   
    25    16    36 1   
    26    17    15 1   
    27    17    37 1   
    28    17    38 1   
    29    17    39 1   
    30    18    40 1   
    31    19    22 1   
    32    19    18 1   
    33    19    21 1   
    34    20    19 1   
    35    20    41 1   
    36    20    42 1   
    37    20    43 1   
    38    21    44 1   
    39    21    45 1   
    40    21    46 1   
    41    22    47 1   
    42    22    48 1   
    43    22    49 1   
    44    23    25 1   
    45    23    18 1   
    46    24    23 2   
    47    25    27 1   
    48    26    25 1   
    49    26    50 1   
    50    26    51 1   
    51    26    52 1   
@<TRIPOS>SUBSTRUCTURE
     1 MOL         1 TEMP              0 ****  ****    0 ROOT
