@<TRIPOS>MOLECULE
MOL
   45    48     1     0     0
SMALL
No Charge or Current Charge


@<TRIPOS>ATOM
      1 C1          -1.3460    26.7050     4.8330 ca         1 MOL       0.000000
      2 N1          -1.7390    27.1900     6.0690 nb         1 MOL       0.000000
      3 C2          -2.5030    28.2970     6.0760 ca         1 MOL       0.000000
      4 C3          -2.9040    28.9710     4.8890 ca         1 MOL       0.000000
      5 C4          -3.7160    30.1550     4.8790 cc         1 MOL       0.000000
      6 C5          -4.0660    30.7510     3.7030 cd         1 MOL       0.000000
      7 C6          -3.6400    30.1590     2.3810 c          1 MOL       0.000000
      8 O1          -3.9110    30.6210     1.2710 o          1 MOL       0.000000
      9 N2          -2.8210    28.9750     2.4340 n          1 MOL       0.000000
     10 C7          -2.4700    28.3760     3.6450 ca         1 MOL       0.000000
     11 N3          -1.6860    27.2680     3.6440 nb         1 MOL       0.000000
     12 C8          -2.3620    28.3370     1.1750 c3         1 MOL       0.000000
     13 N4          -0.5440    25.5990     4.8790 nh         1 MOL       0.000000
     14 H1           0.4030    25.7400     5.2580 hn         1 MOL       0.000000
     15 C9          -0.8600    24.2770     4.4680 ca         1 MOL       0.000000
     16 C10         -2.1770    23.7100     4.4890 ca         1 MOL       0.000000
     17 C11         -2.3800    22.3750     4.0210 ca         1 MOL       0.000000
     18 C12         -1.2970    21.6160     3.5340 ca         1 MOL       0.000000
     19 C13          0.0290    22.1750     3.5050 ca         1 MOL       0.000000
     20 C14          0.2380    23.4960     3.9690 ca         1 MOL       0.000000
     21 C15          1.1950    21.3570     2.9720 c3         1 MOL       0.000000
     22 O2           2.3670    21.5250     3.7190 oh         1 MOL       0.000000
     23 H2           2.7230    20.6040     4.0120 ho         1 MOL       0.000000
     24 C16         -4.8840    31.9810     3.6520 ca         1 MOL       0.000000
     25 C17         -6.2770    31.9710     3.9440 ca         1 MOL       0.000000
     26 Cl1         -7.0560    30.4850     4.4380 cl         1 MOL       0.000000
     27 C18         -7.0530    33.1760     3.8710 ca         1 MOL       0.000000
     28 C19         -6.4380    34.3980     3.4710 ca         1 MOL       0.000000
     29 C20         -5.0440    34.4420     3.1760 ca         1 MOL       0.000000
     30 C21         -4.2900    33.2280     3.2550 ca         1 MOL       0.000000
     31 Cl2         -2.5890    33.2980     2.8950 cl         1 MOL       0.000000
     32 H3          -2.8130    28.6750     6.9850 h4         1 MOL       0.000000
     33 H4          -4.0390    30.5600     5.7720 ha         1 MOL       0.000000
     34 H5          -2.7080    28.9090     0.3390 h1         1 MOL       0.000000
     35 H6          -2.7550    27.3430     1.1150 h1         1 MOL       0.000000
     36 H7          -1.2930    28.2990     1.1640 h1         1 MOL       0.000000
     37 H8          -2.9740    24.2630     4.8400 ha         1 MOL       0.000000
     38 H9          -3.3260    21.9640     4.0400 ha         1 MOL       0.000000
     39 H10         -1.4560    20.6540     3.1960 ha         1 MOL       0.000000
     40 H11          1.1870    23.9010     3.9490 ha         1 MOL       0.000000
     41 H12          1.3880    21.6560     1.9630 h1         1 MOL       0.000000
     42 H13          0.9190    20.3250     3.0370 h1         1 MOL       0.000000
     43 H14         -8.0570    33.1580     4.1080 ha         1 MOL       0.000000
     44 H15         -7.0060    35.2570     3.3940 ha         1 MOL       0.000000
     45 H16         -4.5890    35.3300     2.9110 ha         1 MOL       0.000000
@<TRIPOS>BOND
     1     1    13 1   
     2     1     2 ar  
     3     2     3 ar  
     4     3    32 1   
     5     4     3 ar  
     6     5     4 1   
     7     5    33 1   
     8     6     5 2   
     9     7     9 1   
    10     7     6 1   
    11     8     7 2   
    12     9    10 1   
    13    10     4 ar  
    14    11    10 ar  
    15    11     1 ar  
    16    12     9 1   
    17    12    34 1   
    18    12    35 1   
    19    12    36 1   
    20    13    14 1   
    21    15    16 ar  
    22    15    13 1   
    23    16    37 1   
    24    17    16 ar  
    25    17    38 1   
    26    18    17 ar  
    27    18    39 1   
    28    19    18 ar  
    29    19    20 ar  
    30    20    15 ar  
    31    20    40 1   
    32    21    19 1   
    33    21    22 1   
    34    21    41 1   
    35    21    42 1   
    36    22    23 1   
    37    24     6 1   
    38    24    25 ar  
    39    25    26 1   
    40    27    25 ar  
    41    27    43 1   
    42    28    27 ar  
    43    28    44 1   
    44    29    30 ar  
    45    29    28 ar  
    46    29    45 1   
    47    30    24 ar  
    48    31    30 1   
@<TRIPOS>SUBSTRUCTURE
     1 MOL         1 TEMP              0 ****  ****    0 ROOT
