@<TRIPOS>MOLECULE
MOL
   45    48     1     0     0
SMALL
No Charge or Current Charge


@<TRIPOS>ATOM
      1 C1          -1.3880    26.7760     4.7940 ca         1 MOL       0.000000
      2 N1          -1.7610    27.2730     6.0310 nb         1 MOL       0.000000
      3 C2          -2.5190    28.3840     6.0390 ca         1 MOL       0.000000
      4 C3          -2.9340    29.0510     4.8520 ca         1 MOL       0.000000
      5 C4          -3.7390    30.2400     4.8440 cc         1 MOL       0.000000
      6 C5          -4.1030    30.8280     3.6680 cd         1 MOL       0.000000
      7 C6          -3.6980    30.2230     2.3450 c          1 MOL       0.000000
      8 O1          -3.9820    30.6760     1.2350 o          1 MOL       0.000000
      9 N2          -2.8860    29.0340     2.3960 n          1 MOL       0.000000
     10 C7          -2.5200    28.4440     3.6070 ca         1 MOL       0.000000
     11 N3          -1.7430    27.3310     3.6040 nb         1 MOL       0.000000
     12 C8          -2.4470    28.3840     1.1360 c3         1 MOL       0.000000
     13 N4          -0.5920    25.6660     4.8380 nh         1 MOL       0.000000
     14 H1           0.3690    25.8100     5.1780 hn         1 MOL       0.000000
     15 C9          -0.9310    24.3370     4.4700 ca         1 MOL       0.000000
     16 C10         -2.2560    23.7920     4.5160 ca         1 MOL       0.000000
     17 C11         -2.4830    22.4460     4.0920 ca         1 MOL       0.000000
     18 C12         -1.4140    21.6540     3.6240 ca         1 MOL       0.000000
     19 C13         -0.0790    22.1920     3.5710 ca         1 MOL       0.000000
     20 C14          0.1520    23.5230     3.9920 ca         1 MOL       0.000000
     21 C15          1.0710    21.3390     3.0600 c3         1 MOL       0.000000
     22 O2           2.2940    21.6490     3.6660 oh         1 MOL       0.000000
     23 H2           2.1980    21.5750     4.6890 ho         1 MOL       0.000000
     24 C16         -4.9150    32.0620     3.6190 ca         1 MOL       0.000000
     25 C17         -4.3510    33.3190     3.2630 ca         1 MOL       0.000000
     26 Cl1         -2.6660    33.4250     2.8080 cl         1 MOL       0.000000
     27 C18         -5.1560    34.5070     3.2400 ca         1 MOL       0.000000
     28 C19         -6.5320    34.4430     3.6060 ca         1 MOL       0.000000
     29 C20         -7.1270    33.1980     3.9640 ca         1 MOL       0.000000
     30 C21         -6.3050    32.0270     3.9800 ca         1 MOL       0.000000
     31 Cl2         -7.0460    30.5140     4.4160 cl         1 MOL       0.000000
     32 H3          -2.8140    28.7710     6.9490 h4         1 MOL       0.000000
     33 H4          -4.0460    30.6540     5.7380 ha         1 MOL       0.000000
     34 H5          -2.8020    28.9500     0.3000 h1         1 MOL       0.000000
     35 H6          -2.8440    27.3910     1.0900 h1         1 MOL       0.000000
     36 H7          -1.3780    28.3420     1.1100 h1         1 MOL       0.000000
     37 H8          -3.0420    24.3690     4.8540 ha         1 MOL       0.000000
     38 H9          -3.4360    22.0510     4.1290 ha         1 MOL       0.000000
     39 H10         -1.5890    20.6840     3.3180 ha         1 MOL       0.000000
     40 H11          1.1070    23.9130     3.9550 ha         1 MOL       0.000000
     41 H12          1.1650    21.4910     2.0050 h1         1 MOL       0.000000
     42 H13          0.8450    20.3210     3.2990 h1         1 MOL       0.000000
     43 H14         -4.7380    35.4080     2.9580 ha         1 MOL       0.000000
     44 H15         -7.1010    35.3040     3.6120 ha         1 MOL       0.000000
     45 H16         -8.1290    33.1420     4.2060 ha         1 MOL       0.000000
@<TRIPOS>BOND
     1     1    13 1   
     2     1     2 ar  
     3     2     3 ar  
     4     3    32 1   
     5     4     3 ar  
     6     5     4 1   
     7     5    33 1   
     8     6     5 2   
     9     7     9 1   
    10     7     6 1   
    11     8     7 2   
    12     9    10 1   
    13    10     4 ar  
    14    11    10 ar  
    15    11     1 ar  
    16    12     9 1   
    17    12    34 1   
    18    12    35 1   
    19    12    36 1   
    20    13    14 1   
    21    15    16 ar  
    22    15    13 1   
    23    16    37 1   
    24    17    16 ar  
    25    17    38 1   
    26    18    17 ar  
    27    18    39 1   
    28    19    18 ar  
    29    19    20 ar  
    30    20    15 ar  
    31    20    40 1   
    32    21    19 1   
    33    21    22 1   
    34    21    41 1   
    35    21    42 1   
    36    22    23 1   
    37    24     6 1   
    38    24    30 ar  
    39    25    24 ar  
    40    26    25 1   
    41    27    25 ar  
    42    27    28 ar  
    43    27    43 1   
    44    28    29 ar  
    45    28    44 1   
    46    29    30 ar  
    47    29    45 1   
    48    30    31 1   
@<TRIPOS>SUBSTRUCTURE
     1 MOL         1 TEMP              0 ****  ****    0 ROOT
