@<TRIPOS>MOLECULE
MOL
   45    48     1     0     0
SMALL
No Charge or Current Charge


@<TRIPOS>ATOM
      1 C1          -1.2610    26.6310     4.9070 ca         1 MOL       0.000000
      2 N1          -1.6940    27.1140     6.1300 nb         1 MOL       0.000000
      3 C2          -2.4670    28.2150     6.1140 ca         1 MOL       0.000000
      4 C3          -2.8390    28.8850     4.9140 ca         1 MOL       0.000000
      5 C4          -3.6600    30.0620     4.8790 cc         1 MOL       0.000000
      6 C5          -3.9800    30.6540     3.6920 cd         1 MOL       0.000000
      7 C6          -3.5100    30.0640     2.3840 c          1 MOL       0.000000
      8 O1          -3.7520    30.5220     1.2660 o          1 MOL       0.000000
      9 N2          -2.6840    28.8870     2.4620 n          1 MOL       0.000000
     10 C7          -2.3630    28.2920     3.6840 ca         1 MOL       0.000000
     11 N3          -1.5710    27.1900     3.7070 nb         1 MOL       0.000000
     12 C8          -2.1820    28.2520     1.2180 c3         1 MOL       0.000000
     13 N4          -0.4520    25.5320     4.9780 nh         1 MOL       0.000000
     14 H1           0.4390    25.6560     5.4790 hn         1 MOL       0.000000
     15 C9          -0.6920    24.2390     4.4440 ca         1 MOL       0.000000
     16 C10          0.3140    23.3920     3.8730 ca         1 MOL       0.000000
     17 C11         -0.0420    22.0940     3.3920 ca         1 MOL       0.000000
     18 C12         -1.3740    21.6400     3.4800 ca         1 MOL       0.000000
     19 C13         -2.3930    22.4810     4.0530 ca         1 MOL       0.000000
     20 C14         -2.0470    23.7680     4.5290 ca         1 MOL       0.000000
     21 C15         -3.8270    21.9860     4.1530 c3         1 MOL       0.000000
     22 O2          -3.9170    20.6460     4.5500 oh         1 MOL       0.000000
     23 H2          -4.0850    20.0540     3.7250 ho         1 MOL       0.000000
     24 C16         -4.8060    31.8770     3.6160 ca         1 MOL       0.000000
     25 C17         -4.2480    33.1420     3.2800 ca         1 MOL       0.000000
     26 Cl1         -2.5500    33.2700     2.8830 cl         1 MOL       0.000000
     27 C18         -5.0680    34.3190     3.2310 ca         1 MOL       0.000000
     28 C19         -6.4540    34.2370     3.5500 ca         1 MOL       0.000000
     29 C20         -7.0450    32.9830     3.8870 ca         1 MOL       0.000000
     30 C21         -6.2080    31.8240     3.9310 ca         1 MOL       0.000000
     31 Cl2         -6.9430    30.3000     4.3400 cl         1 MOL       0.000000
     32 H3          -2.8060    28.5910     7.0130 h4         1 MOL       0.000000
     33 H4          -4.0120    30.4650     5.7610 ha         1 MOL       0.000000
     34 H5          -2.5080    28.8190     0.3710 h1         1 MOL       0.000000
     35 H6          -2.5640    27.2550     1.1470 h1         1 MOL       0.000000
     36 H7          -1.1130    28.2240     1.2380 h1         1 MOL       0.000000
     37 H8           1.2910    23.7180     3.8090 ha         1 MOL       0.000000
     38 H9           0.6810    21.4850     2.9780 ha         1 MOL       0.000000
     39 H10         -1.6200    20.7000     3.1320 ha         1 MOL       0.000000
     40 H11         -2.7740    24.3740     4.9410 ha         1 MOL       0.000000
     41 H12         -4.2910    22.0900     3.1940 h1         1 MOL       0.000000
     42 H13         -4.3170    22.5750     4.9000 h1         1 MOL       0.000000
     43 H14         -4.6530    35.2260     2.9640 ha         1 MOL       0.000000
     44 H15         -7.0340    35.0900     3.5370 ha         1 MOL       0.000000
     45 H16         -8.0540    32.9140     4.0940 ha         1 MOL       0.000000
@<TRIPOS>BOND
     1     1    13 1   
     2     1     2 ar  
     3     3     2 ar  
     4     3    32 1   
     5     4     3 ar  
     6     5     4 1   
     7     5    33 1   
     8     6     5 2   
     9     7     9 1   
    10     7     6 1   
    11     8     7 2   
    12     9    10 1   
    13    10    11 ar  
    14    10     4 ar  
    15    11     1 ar  
    16    12     9 1   
    17    12    34 1   
    18    12    35 1   
    19    12    36 1   
    20    13    14 1   
    21    15    20 ar  
    22    15    13 1   
    23    16    15 ar  
    24    16    37 1   
    25    17    18 ar  
    26    17    16 ar  
    27    17    38 1   
    28    18    19 ar  
    29    18    39 1   
    30    19    21 1   
    31    19    20 ar  
    32    20    40 1   
    33    21    22 1   
    34    21    41 1   
    35    21    42 1   
    36    23    22 1   
    37    24     6 1   
    38    24    30 ar  
    39    25    24 ar  
    40    26    25 1   
    41    27    25 ar  
    42    27    28 ar  
    43    27    43 1   
    44    28    29 ar  
    45    28    44 1   
    46    29    30 ar  
    47    29    45 1   
    48    30    31 1   
@<TRIPOS>SUBSTRUCTURE
     1 MOL         1 TEMP              0 ****  ****    0 ROOT
