@<TRIPOS>MOLECULE
MOL
   52    55     1     0     0
SMALL
No Charge or Current Charge


@<TRIPOS>ATOM
      1 C1          38.6180    12.6490    29.7630 ce         1 MOL       0.000000
      2 C2          38.9130    11.3500    29.7770 c3         1 MOL       0.000000
      3 C3          40.0810    10.6310    29.5390 c2         1 MOL       0.000000
      4 N1          40.0830     9.3010    29.7100 n2         1 MOL       0.000000
      5 C4          38.9850     8.6750    30.1350 c3         1 MOL       0.000000
      6 N2          37.8510     9.3670    30.3940 n2         1 MOL       0.000000
      7 C5          37.8090    10.6930    30.2210 c2         1 MOL       0.000000
      8 O1          36.8700    11.5460    30.4230 os         1 MOL       0.000000
      9 C6          37.2710    12.7300    30.1110 cf         1 MOL       0.000000
     10 C7          36.5050    13.8650    30.2150 ca         1 MOL       0.000000
     11 C8          35.2640    13.7930    30.8630 ca         1 MOL       0.000000
     12 C9          34.4600    14.9120    30.9530 ca         1 MOL       0.000000
     13 C10         34.8610    16.0990    30.3800 ca         1 MOL       0.000000
     14 C11         36.0900    16.1720    29.7040 ca         1 MOL       0.000000
     15 C12         36.8980    15.0420    29.6080 ca         1 MOL       0.000000
     16 C13         39.4850    13.7520    29.2200 ca         1 MOL       0.000000
     17 C14         40.3410    14.4780    30.0730 ca         1 MOL       0.000000
     18 C15         41.2190    15.4800    29.5230 ca         1 MOL       0.000000
     19 C16         41.2270    15.7180    28.1240 ca         1 MOL       0.000000
     20 C17         40.4020    14.9590    27.2830 ca         1 MOL       0.000000
     21 C18         39.5340    13.9770    27.8250 ca         1 MOL       0.000000
     22 O2          42.1180    16.6600    27.5670 os         1 MOL       0.000000
     23 C19         42.6510    17.4850    28.5890 c3         1 MOL       0.000000
     24 N3          41.1820    11.2410    29.1280 nh         1 MOL       0.000000
     25 H1          41.1200    12.1530    28.6530 hn         1 MOL       0.000000
     26 C20         42.5090    10.6040    29.3540 c3         1 MOL       0.000000
     27 C21         43.1500     9.6840    28.2390 c3         1 MOL       0.000000
     28 O3          42.2790     8.8940    27.3290 oh         1 MOL       0.000000
     29 H2          42.4780     9.1520    26.3520 ho         1 MOL       0.000000
     30 O4          34.0650    17.1940    30.4710 os         1 MOL       0.000000
     31 C22         32.6280    17.0780    30.1940 c3         1 MOL       0.000000
     32 H3          39.7660    11.4580    29.1400 hc         1 MOL       0.000000
     33 H4          39.2510     8.1740    31.0420 h2         1 MOL       0.000000
     34 H5          38.7110     8.0760    29.2920 h2         1 MOL       0.000000
     35 H6          34.9500    12.9000    31.2740 ha         1 MOL       0.000000
     36 H7          33.5570    14.8590    31.4500 ha         1 MOL       0.000000
     37 H8          36.3940    17.0620    29.2790 ha         1 MOL       0.000000
     38 H9          37.7870    15.0840    29.0850 ha         1 MOL       0.000000
     39 H10         40.3390    14.2930    31.0880 ha         1 MOL       0.000000
     40 H11         41.8400    16.0220    30.1440 ha         1 MOL       0.000000
     41 H12         40.4260    15.1160    26.2630 ha         1 MOL       0.000000
     42 H13         38.9330    13.4220    27.1960 ha         1 MOL       0.000000
     43 H14         43.3250    18.1960    28.1580 h1         1 MOL       0.000000
     44 H15         43.1760    16.8800    29.2980 h1         1 MOL       0.000000
     45 H16         41.8540    18.0020    29.0820 h1         1 MOL       0.000000
     46 H17         43.2040    11.3970    29.5360 h1         1 MOL       0.000000
     47 H18         42.3180     9.9200    30.1540 h1         1 MOL       0.000000
     48 H19         43.7450    10.3210    27.6190 h1         1 MOL       0.000000
     49 H20         43.6570     8.9310    28.8060 h1         1 MOL       0.000000
     50 H21         32.1630    18.0340    30.3140 h1         1 MOL       0.000000
     51 H22         32.1890    16.3800    30.8750 h1         1 MOL       0.000000
     52 H23         32.4850    16.7350    29.1910 h1         1 MOL       0.000000
@<TRIPOS>BOND
     1     1     2 1   
     2     1     9 2   
     3     2     7 1   
     4     2    32 1   
     5     3     4 2   
     6     3     2 1   
     7     4     5 1   
     8     5     6 1   
     9     5    33 1   
    10     5    34 1   
    11     7     6 2   
    12     7     8 1   
    13     9    10 1   
    14     9     8 1   
    15    10    11 ar  
    16    11    12 ar  
    17    11    35 1   
    18    12    36 1   
    19    13    30 1   
    20    13    12 ar  
    21    14    13 ar  
    22    14    37 1   
    23    15    14 ar  
    24    15    10 ar  
    25    15    38 1   
    26    16     1 1   
    27    16    17 ar  
    28    17    39 1   
    29    18    17 ar  
    30    18    40 1   
    31    19    18 ar  
    32    20    21 ar  
    33    20    19 ar  
    34    20    41 1   
    35    21    16 ar  
    36    21    42 1   
    37    22    19 1   
    38    22    23 1   
    39    23    43 1   
    40    23    44 1   
    41    23    45 1   
    42    24    26 1   
    43    24     3 1   
    44    25    24 1   
    45    26    46 1   
    46    26    47 1   
    47    27    26 1   
    48    27    48 1   
    49    27    49 1   
    50    28    27 1   
    51    29    28 1   
    52    31    30 1   
    53    31    50 1   
    54    31    51 1   
    55    31    52 1   
@<TRIPOS>SUBSTRUCTURE
     1 MOL         1 TEMP              0 ****  ****    0 ROOT
