@<TRIPOS>MOLECULE
MOL
   52    55     1     0     0
SMALL
No Charge or Current Charge


@<TRIPOS>ATOM
      1 C1          38.4180    15.3550    29.1590 ce         1 MOL       0.000000
      2 C2          39.1840    15.4640    28.0740 c3         1 MOL       0.000000
      3 C3          40.5280    15.2040    27.8210 c2         1 MOL       0.000000
      4 N1          41.0040    15.3410    26.5760 n2         1 MOL       0.000000
      5 C4          40.1900    15.6920    25.5780 c3         1 MOL       0.000000
      6 N2          38.8760    15.9210    25.8080 n2         1 MOL       0.000000
      7 C5          38.3700    15.8080    27.0410 c2         1 MOL       0.000000
      8 O1          37.1730    15.9500    27.4850 os         1 MOL       0.000000
      9 C6          37.1440    15.7510    28.7570 cf         1 MOL       0.000000
     10 C7          36.0120    15.8260    29.5320 ca         1 MOL       0.000000
     11 C8          34.7640    15.9490    28.9060 ca         1 MOL       0.000000
     12 C9          33.6150    16.0580    29.6630 ca         1 MOL       0.000000
     13 C10         33.6910    16.0750    31.0370 ca         1 MOL       0.000000
     14 C11         34.9400    15.9790    31.6730 ca         1 MOL       0.000000
     15 C12         36.1000    15.8760    30.9100 ca         1 MOL       0.000000
     16 C13         38.8970    15.1220    30.5650 ca         1 MOL       0.000000
     17 C14         38.8740    13.8280    31.1270 ca         1 MOL       0.000000
     18 C15         39.4050    13.6120    32.4480 ca         1 MOL       0.000000
     19 C16         39.9640    14.6980    33.1700 ca         1 MOL       0.000000
     20 C17         40.0190    15.9700    32.5830 ca         1 MOL       0.000000
     21 C18         39.4910    16.1850    31.2850 ca         1 MOL       0.000000
     22 O2          40.5350    14.4890    34.4440 os         1 MOL       0.000000
     23 C19         41.8830    14.0720    34.3070 c3         1 MOL       0.000000
     24 N3          41.3450    14.8430    28.7990 nh         1 MOL       0.000000
     25 H1          41.1510    13.9940    29.3490 hn         1 MOL       0.000000
     26 C20         42.5460    15.6700    29.1010 c3         1 MOL       0.000000
     27 C21         42.3950    17.2170    29.3930 c3         1 MOL       0.000000
     28 O3          43.1130    17.8370    30.5380 oh         1 MOL       0.000000
     29 H2          43.4790    17.0980    31.1550 ho         1 MOL       0.000000
     30 O4          32.5570    16.1830    31.7750 os         1 MOL       0.000000
     31 C22         32.4480    15.4720    33.0550 c3         1 MOL       0.000000
     32 H3          40.0950    15.5320    28.6320 hc         1 MOL       0.000000
     33 H4          40.5890    16.5930    25.1600 h2         1 MOL       0.000000
     34 H5          40.1760    14.8170    24.9620 h2         1 MOL       0.000000
     35 H6          34.7040    15.9580    27.8760 ha         1 MOL       0.000000
     36 H7          32.6970    16.1270    29.1980 ha         1 MOL       0.000000
     37 H8          34.9980    15.9850    32.7030 ha         1 MOL       0.000000
     38 H9          37.0220    15.8370    31.3720 ha         1 MOL       0.000000
     39 H10         38.4780    13.0390    30.5930 ha         1 MOL       0.000000
     40 H11         39.3790    12.6700    32.8680 ha         1 MOL       0.000000
     41 H12         40.4470    16.7550    33.0990 ha         1 MOL       0.000000
     42 H13         39.5400    17.1250    30.8620 ha         1 MOL       0.000000
     43 H14         42.3080    13.9160    35.2760 h1         1 MOL       0.000000
     44 H15         42.4390    14.8260    33.7910 h1         1 MOL       0.000000
     45 H16         41.9190    13.1590    33.7500 h1         1 MOL       0.000000
     46 H17         43.2020    15.5780    28.2610 h1         1 MOL       0.000000
     47 H18         42.8830    15.2770    30.0380 h1         1 MOL       0.000000
     48 H19         41.3520    17.4010    29.5480 h1         1 MOL       0.000000
     49 H20         42.8570    17.6710    28.5410 h1         1 MOL       0.000000
     50 H21         31.4930    15.6720    33.4940 h1         1 MOL       0.000000
     51 H22         33.2210    15.8060    33.7150 h1         1 MOL       0.000000
     52 H23         32.5510    14.4200    32.8890 h1         1 MOL       0.000000
@<TRIPOS>BOND
     1     1    16 1   
     2     2     1 1   
     3     2    32 1   
     4     3     2 1   
     5     3    24 1   
     6     4     3 2   
     7     5     6 1   
     8     5     4 1   
     9     5    33 1   
    10     5    34 1   
    11     6     7 2   
    12     7     8 1   
    13     7     2 1   
    14     8     9 1   
    15     9     1 2   
    16     9    10 1   
    17    10    15 ar  
    18    11    10 ar  
    19    11    12 ar  
    20    11    35 1   
    21    12    13 ar  
    22    12    36 1   
    23    13    14 ar  
    24    13    30 1   
    25    14    37 1   
    26    15    14 ar  
    27    15    38 1   
    28    16    17 ar  
    29    16    21 ar  
    30    17    18 ar  
    31    17    39 1   
    32    18    19 ar  
    33    18    40 1   
    34    19    22 1   
    35    20    19 ar  
    36    20    41 1   
    37    21    20 ar  
    38    21    42 1   
    39    23    22 1   
    40    23    43 1   
    41    23    44 1   
    42    23    45 1   
    43    24    26 1   
    44    24    25 1   
    45    26    27 1   
    46    26    46 1   
    47    26    47 1   
    48    27    28 1   
    49    27    48 1   
    50    27    49 1   
    51    28    29 1   
    52    30    31 1   
    53    31    50 1   
    54    31    51 1   
    55    31    52 1   
@<TRIPOS>SUBSTRUCTURE
     1 MOL         1 TEMP              0 ****  ****    0 ROOT
