@<TRIPOS>MOLECULE
MOL
   52    55     1     0     0
SMALL
No Charge or Current Charge


@<TRIPOS>ATOM
      1 C1          35.5310    15.9530    32.1440 ce         1 MOL       0.000000
      2 C2          34.2110    15.9830    31.9600 c3         1 MOL       0.000000
      3 C3          33.1240    15.6660    32.7700 c2         1 MOL       0.000000
      4 N1          31.8810    15.8790    32.3180 n2         1 MOL       0.000000
      5 C4          31.6840    16.4210    31.1150 c3         1 MOL       0.000000
      6 N2          32.7340    16.7570    30.3290 n2         1 MOL       0.000000
      7 C5          33.9890    16.5450    30.7420 c2         1 MOL       0.000000
      8 O1          35.1200    16.8010    30.1890 os         1 MOL       0.000000
      9 C6          36.0840    16.4160    30.9510 cf         1 MOL       0.000000
     10 C7          37.4170    16.5500    30.6490 ca         1 MOL       0.000000
     11 C8          37.7900    17.3080    29.5310 ca         1 MOL       0.000000
     12 C9          39.1210    17.4320    29.1870 ca         1 MOL       0.000000
     13 C10         40.0890    16.7870    29.9250 ca         1 MOL       0.000000
     14 C11         39.7220    16.0030    31.0310 ca         1 MOL       0.000000
     15 C12         38.3790    15.8730    31.3740 ca         1 MOL       0.000000
     16 C13         36.2540    15.2990    33.2890 ca         1 MOL       0.000000
     17 C14         36.4980    13.9100    33.2850 ca         1 MOL       0.000000
     18 C15         37.2580    13.3140    34.3540 ca         1 MOL       0.000000
     19 C16         37.7700    14.1300    35.3950 ca         1 MOL       0.000000
     20 C17         37.5570    15.5150    35.3640 ca         1 MOL       0.000000
     21 C18         36.8040    16.1020    34.3150 ca         1 MOL       0.000000
     22 O2          38.5600    13.5660    36.4200 os         1 MOL       0.000000
     23 C19         39.3680    14.5680    37.0140 c3         1 MOL       0.000000
     24 N3          33.3040    15.1390    33.9710 nh         1 MOL       0.000000
     25 H1          33.5470    14.1430    34.0670 hn         1 MOL       0.000000
     26 C20         33.1540    15.9920    35.1830 c3         1 MOL       0.000000
     27 C21         31.7220    16.2440    35.8060 c3         1 MOL       0.000000
     28 O3          30.6310    16.8070    34.9690 oh         1 MOL       0.000000
     29 H2          30.7780    17.8190    34.8460 ho         1 MOL       0.000000
     30 O4          41.3950    16.9120    29.5810 os         1 MOL       0.000000
     31 C22         42.3760    17.3480    30.5830 c3         1 MOL       0.000000
     32 H3          34.0090    15.2690    32.7310 hc         1 MOL       0.000000
     33 H4          31.0960    15.7220    30.5570 h2         1 MOL       0.000000
     34 H5          31.2470    17.3690    31.3490 h2         1 MOL       0.000000
     35 H6          37.0670    17.7760    28.9620 ha         1 MOL       0.000000
     36 H7          39.3920    18.0090    28.3750 ha         1 MOL       0.000000
     37 H8          40.4470    15.5240    31.5880 ha         1 MOL       0.000000
     38 H9          38.1030    15.2730    32.1670 ha         1 MOL       0.000000
     39 H10         36.1330    13.3220    32.5190 ha         1 MOL       0.000000
     40 H11         37.4290    12.2960    34.3620 ha         1 MOL       0.000000
     41 H12         37.9500    16.1110    36.1090 ha         1 MOL       0.000000
     42 H13         36.6560    17.1230    34.3000 ha         1 MOL       0.000000
     43 H14         39.9630    14.1330    37.7890 h1         1 MOL       0.000000
     44 H15         38.7430    15.3300    37.4300 h1         1 MOL       0.000000
     45 H16         40.0080    14.9970    36.2710 h1         1 MOL       0.000000
     46 H17         33.5560    16.9520    34.9350 h1         1 MOL       0.000000
     47 H18         33.6540    15.4280    35.9420 h1         1 MOL       0.000000
     48 H19         31.3740    15.3000    36.1710 h1         1 MOL       0.000000
     49 H20         31.9010    17.0160    36.5240 h1         1 MOL       0.000000
     50 H21         43.3470    17.3890    30.1370 h1         1 MOL       0.000000
     51 H22         42.3870    16.6540    31.3970 h1         1 MOL       0.000000
     52 H23         42.1080    18.3190    30.9450 h1         1 MOL       0.000000
@<TRIPOS>BOND
     1     1    16 1   
     2     2     1 1   
     3     2     3 1   
     4     2    32 1   
     5     3    24 1   
     6     4     3 2   
     7     5     4 1   
     8     5    33 1   
     9     5    34 1   
    10     6     7 2   
    11     6     5 1   
    12     7     2 1   
    13     8     7 1   
    14     8     9 1   
    15     9     1 2   
    16    10     9 1   
    17    10    15 ar  
    18    11    10 ar  
    19    11    35 1   
    20    12    11 ar  
    21    12    13 ar  
    22    12    36 1   
    23    13    14 ar  
    24    14    15 ar  
    25    14    37 1   
    26    15    38 1   
    27    16    21 ar  
    28    17    16 ar  
    29    17    18 ar  
    30    17    39 1   
    31    18    19 ar  
    32    18    40 1   
    33    19    22 1   
    34    20    19 ar  
    35    20    41 1   
    36    21    20 ar  
    37    21    42 1   
    38    22    23 1   
    39    23    43 1   
    40    23    44 1   
    41    23    45 1   
    42    24    25 1   
    43    24    26 1   
    44    26    27 1   
    45    26    46 1   
    46    26    47 1   
    47    27    48 1   
    48    27    49 1   
    49    28    27 1   
    50    29    28 1   
    51    30    13 1   
    52    30    31 1   
    53    31    50 1   
    54    31    51 1   
    55    31    52 1   
@<TRIPOS>SUBSTRUCTURE
     1 MOL         1 TEMP              0 ****  ****    0 ROOT
