MODEL 1
REMARK VINA RESULT:      -8.8      0.000      0.000
REMARK  7 active torsions:
REMARK  status: ('A' for Active; 'I' for Inactive)
REMARK    1  A    between atoms: O_2  and  C1_3 
REMARK    2  A    between atoms: C6_8  and  C7_9 
REMARK    3  A    between atoms: C9_11  and  N_12 
REMARK    4  A    between atoms: N_12  and  C10_14 
REMARK    5  A    between atoms: C10_14  and  C11_15 
REMARK    6  A    between atoms: C11_15  and  O1_16 
REMARK    7  A    between atoms: C18_27  and  O3_28 
ROOT
ATOM      1  C7  UNL d          38.618  12.649  29.763  0.00  0.00     0.027 A 
ATOM      2  C8  UNL d          38.913  11.350  29.777  0.00  0.00     0.077 A 
ATOM      3  C9  UNL d          40.081  10.631  29.539  0.00  0.00     0.140 A 
ATOM      4  N1  UNL d          40.083   9.301  29.710  0.00  0.00    -0.224 NA
ATOM      5  C12 UNL d          38.985   8.675  30.135  0.00  0.00     0.238 A 
ATOM      6  N2  UNL d          37.851   9.367  30.394  0.00  0.00    -0.217 NA
ATOM      7  C13 UNL d          37.809  10.693  30.221  0.00  0.00     0.186 A 
ATOM      8  O2  UNL d          36.870  11.546  30.423  0.00  0.00    -0.289 OA
ATOM      9  C14 UNL d          37.271  12.730  30.111  0.00  0.00     0.100 A 
ATOM     10  C15 UNL d          36.505  13.865  30.215  0.00  0.00    -0.001 A 
ATOM     11  C16 UNL d          35.264  13.793  30.863  0.00  0.00     0.017 A 
ATOM     12  C17 UNL d          34.460  14.912  30.953  0.00  0.00     0.037 A 
ATOM     13  C18 UNL d          34.861  16.099  30.380  0.00  0.00     0.068 A 
ATOM     14  C20 UNL d          36.090  16.172  29.704  0.00  0.00     0.037 A 
ATOM     15  C21 UNL d          36.898  15.042  29.608  0.00  0.00     0.017 A 
ENDROOT
BRANCH   1  16
ATOM     16  C6  UNL d          39.485  13.752  29.220  0.00  0.00    -0.022 A 
ATOM     17  C3  UNL d          40.341  14.478  30.073  0.00  0.00     0.015 A 
ATOM     18  C2  UNL d          41.219  15.480  29.523  0.00  0.00     0.037 A 
ATOM     19  C1  UNL d          41.227  15.718  28.124  0.00  0.00     0.068 A 
ATOM     20  C4  UNL d          40.402  14.959  27.283  0.00  0.00     0.037 A 
ATOM     21  C5  UNL d          39.534  13.977  27.825  0.00  0.00     0.015 A 
BRANCH  19  22
ATOM     22  O   UNL d          42.118  16.660  27.567  0.00  0.00    -0.356 OA
ATOM     23  C   UNL d          42.651  17.485  28.589  0.00  0.00     0.210 C 
ENDBRANCH  19  22
ENDBRANCH   1  16
BRANCH   3  24
ATOM     24  N   UNL d          41.182  11.241  29.128  0.00  0.00    -0.372 N 
ATOM     25  H7  UNL d          41.120  12.153  28.653  0.00  0.00     0.161 HD
BRANCH  24  26
ATOM     26  C10 UNL d          42.509  10.604  29.354  0.00  0.00     0.147 C 
BRANCH  26  27
ATOM     27  C11 UNL d          43.150   9.684  28.239  0.00  0.00     0.183 C 
BRANCH  27  28
ATOM     28  O1  UNL d          42.279   8.894  27.329  0.00  0.00    -0.399 OA
ATOM     29  H12 UNL d          42.478   9.152  26.352  0.00  0.00     0.209 HD
ENDBRANCH  27  28
ENDBRANCH  26  27
ENDBRANCH  24  26
ENDBRANCH   3  24
BRANCH  13  30
ATOM     30  O3  UNL d          34.065  17.194  30.471  0.00  0.00    -0.356 OA
ATOM     31  C19 UNL d          32.628  17.078  30.194  0.00  0.00     0.210 C 
ENDBRANCH  13  30
TORSDOF 7
ENDMDL
MODEL 2
REMARK VINA RESULT:      -8.8      4.869      8.405
REMARK  7 active torsions:
REMARK  status: ('A' for Active; 'I' for Inactive)
REMARK    1  A    between atoms: O_2  and  C1_3 
REMARK    2  A    between atoms: C6_8  and  C7_9 
REMARK    3  A    between atoms: C9_11  and  N_12 
REMARK    4  A    between atoms: N_12  and  C10_14 
REMARK    5  A    between atoms: C10_14  and  C11_15 
REMARK    6  A    between atoms: C11_15  and  O1_16 
REMARK    7  A    between atoms: C18_27  and  O3_28 
ROOT
ATOM      1  C7  UNL d          35.531  15.953  32.144  0.00  0.00     0.027 A 
ATOM      2  C8  UNL d          34.211  15.983  31.960  0.00  0.00     0.077 A 
ATOM      3  C9  UNL d          33.124  15.666  32.770  0.00  0.00     0.140 A 
ATOM      4  N1  UNL d          31.881  15.879  32.318  0.00  0.00    -0.224 NA
ATOM      5  C12 UNL d          31.684  16.421  31.115  0.00  0.00     0.238 A 
ATOM      6  N2  UNL d          32.734  16.757  30.329  0.00  0.00    -0.217 NA
ATOM      7  C13 UNL d          33.989  16.545  30.742  0.00  0.00     0.186 A 
ATOM      8  O2  UNL d          35.120  16.801  30.189  0.00  0.00    -0.289 OA
ATOM      9  C14 UNL d          36.084  16.416  30.951  0.00  0.00     0.100 A 
ATOM     10  C15 UNL d          37.417  16.550  30.649  0.00  0.00    -0.001 A 
ATOM     11  C16 UNL d          37.790  17.308  29.531  0.00  0.00     0.017 A 
ATOM     12  C17 UNL d          39.121  17.432  29.187  0.00  0.00     0.037 A 
ATOM     13  C18 UNL d          40.089  16.787  29.925  0.00  0.00     0.068 A 
ATOM     14  C20 UNL d          39.722  16.003  31.031  0.00  0.00     0.037 A 
ATOM     15  C21 UNL d          38.379  15.873  31.374  0.00  0.00     0.017 A 
ENDROOT
BRANCH   1  16
ATOM     16  C6  UNL d          36.254  15.299  33.289  0.00  0.00    -0.022 A 
ATOM     17  C3  UNL d          36.498  13.910  33.285  0.00  0.00     0.015 A 
ATOM     18  C2  UNL d          37.258  13.314  34.354  0.00  0.00     0.037 A 
ATOM     19  C1  UNL d          37.770  14.130  35.395  0.00  0.00     0.068 A 
ATOM     20  C4  UNL d          37.557  15.515  35.364  0.00  0.00     0.037 A 
ATOM     21  C5  UNL d          36.804  16.102  34.315  0.00  0.00     0.015 A 
BRANCH  19  22
ATOM     22  O   UNL d          38.560  13.566  36.420  0.00  0.00    -0.356 OA
ATOM     23  C   UNL d          39.368  14.568  37.014  0.00  0.00     0.210 C 
ENDBRANCH  19  22
ENDBRANCH   1  16
BRANCH   3  24
ATOM     24  N   UNL d          33.304  15.139  33.971  0.00  0.00    -0.372 N 
ATOM     25  H7  UNL d          33.547  14.143  34.067  0.00  0.00     0.161 HD
BRANCH  24  26
ATOM     26  C10 UNL d          33.154  15.992  35.183  0.00  0.00     0.147 C 
BRANCH  26  27
ATOM     27  C11 UNL d          31.722  16.244  35.806  0.00  0.00     0.183 C 
BRANCH  27  28
ATOM     28  O1  UNL d          30.631  16.807  34.969  0.00  0.00    -0.399 OA
ATOM     29  H12 UNL d          30.778  17.819  34.846  0.00  0.00     0.209 HD
ENDBRANCH  27  28
ENDBRANCH  26  27
ENDBRANCH  24  26
ENDBRANCH   3  24
BRANCH  13  30
ATOM     30  O3  UNL d          41.395  16.912  29.581  0.00  0.00    -0.356 OA
ATOM     31  C19 UNL d          42.376  17.348  30.583  0.00  0.00     0.210 C 
ENDBRANCH  13  30
TORSDOF 7
ENDMDL
MODEL 3
REMARK VINA RESULT:      -8.5      3.587      5.048
REMARK  7 active torsions:
REMARK  status: ('A' for Active; 'I' for Inactive)
REMARK    1  A    between atoms: O_2  and  C1_3 
REMARK    2  A    between atoms: C6_8  and  C7_9 
REMARK    3  A    between atoms: C9_11  and  N_12 
REMARK    4  A    between atoms: N_12  and  C10_14 
REMARK    5  A    between atoms: C10_14  and  C11_15 
REMARK    6  A    between atoms: C11_15  and  O1_16 
REMARK    7  A    between atoms: C18_27  and  O3_28 
ROOT
ATOM      1  C7  UNL d          38.418  15.355  29.159  0.00  0.00     0.027 A 
ATOM      2  C8  UNL d          39.184  15.464  28.074  0.00  0.00     0.077 A 
ATOM      3  C9  UNL d          40.528  15.204  27.821  0.00  0.00     0.140 A 
ATOM      4  N1  UNL d          41.004  15.341  26.576  0.00  0.00    -0.224 NA
ATOM      5  C12 UNL d          40.190  15.692  25.578  0.00  0.00     0.238 A 
ATOM      6  N2  UNL d          38.876  15.921  25.808  0.00  0.00    -0.217 NA
ATOM      7  C13 UNL d          38.370  15.808  27.041  0.00  0.00     0.186 A 
ATOM      8  O2  UNL d          37.173  15.950  27.485  0.00  0.00    -0.289 OA
ATOM      9  C14 UNL d          37.144  15.751  28.757  0.00  0.00     0.100 A 
ATOM     10  C15 UNL d          36.012  15.826  29.532  0.00  0.00    -0.001 A 
ATOM     11  C16 UNL d          34.764  15.949  28.906  0.00  0.00     0.017 A 
ATOM     12  C17 UNL d          33.615  16.058  29.663  0.00  0.00     0.037 A 
ATOM     13  C18 UNL d          33.691  16.075  31.037  0.00  0.00     0.068 A 
ATOM     14  C20 UNL d          34.940  15.979  31.673  0.00  0.00     0.037 A 
ATOM     15  C21 UNL d          36.100  15.876  30.910  0.00  0.00     0.017 A 
ENDROOT
BRANCH   1  16
ATOM     16  C6  UNL d          38.897  15.122  30.565  0.00  0.00    -0.022 A 
ATOM     17  C3  UNL d          38.874  13.828  31.127  0.00  0.00     0.015 A 
ATOM     18  C2  UNL d          39.405  13.612  32.448  0.00  0.00     0.037 A 
ATOM     19  C1  UNL d          39.964  14.698  33.170  0.00  0.00     0.068 A 
ATOM     20  C4  UNL d          40.019  15.970  32.583  0.00  0.00     0.037 A 
ATOM     21  C5  UNL d          39.491  16.185  31.285  0.00  0.00     0.015 A 
BRANCH  19  22
ATOM     22  O   UNL d          40.535  14.489  34.444  0.00  0.00    -0.356 OA
ATOM     23  C   UNL d          41.883  14.072  34.307  0.00  0.00     0.210 C 
ENDBRANCH  19  22
ENDBRANCH   1  16
BRANCH   3  24
ATOM     24  N   UNL d          41.345  14.843  28.799  0.00  0.00    -0.372 N 
ATOM     25  H7  UNL d          41.151  13.994  29.349  0.00  0.00     0.161 HD
BRANCH  24  26
ATOM     26  C10 UNL d          42.546  15.670  29.101  0.00  0.00     0.147 C 
BRANCH  26  27
ATOM     27  C11 UNL d          42.395  17.217  29.393  0.00  0.00     0.183 C 
BRANCH  27  28
ATOM     28  O1  UNL d          43.113  17.837  30.538  0.00  0.00    -0.399 OA
ATOM     29  H12 UNL d          43.479  17.098  31.155  0.00  0.00     0.209 HD
ENDBRANCH  27  28
ENDBRANCH  26  27
ENDBRANCH  24  26
ENDBRANCH   3  24
BRANCH  13  30
ATOM     30  O3  UNL d          32.557  16.183  31.775  0.00  0.00    -0.356 OA
ATOM     31  C19 UNL d          32.448  15.472  33.055  0.00  0.00     0.210 C 
ENDBRANCH  13  30
TORSDOF 7
ENDMDL
