@<TRIPOS>MOLECULE
MOL
   64    68     1     0     0
SMALL
No Charge or Current Charge


@<TRIPOS>ATOM
      1 N1          32.7290    -3.4370    20.7260 na         1 MOL       0.000000
      2 C1          33.2090    -3.0520    21.9350 cc         1 MOL       0.000000
      3 N2          34.5650    -2.7850    21.9210 nd         1 MOL       0.000000
      4 C2          35.1070    -2.9950    20.5690 cd         1 MOL       0.000000
      5 C3          33.9220    -3.4110    19.7640 cc         1 MOL       0.000000
      6 C4          33.6160    -3.9390    18.3680 ca         1 MOL       0.000000
      7 C5          33.9400    -3.0940    17.2720 ca         1 MOL       0.000000
      8 C6          33.6130    -3.5880    15.9880 ca         1 MOL       0.000000
      9 N3          33.0060    -4.7790    15.8140 nb         1 MOL       0.000000
     10 C7          32.7280    -5.4820    16.9200 ca         1 MOL       0.000000
     11 N4          33.0110    -5.1040    18.1660 nb         1 MOL       0.000000
     12 N5          32.1040    -6.6810    16.8250 nh         1 MOL       0.000000
     13 H1          31.1320    -6.7640    17.1550 hn         1 MOL       0.000000
     14 C8          32.7610    -7.8470    16.2730 cx         1 MOL       0.000000
     15 C9          31.6170    -8.6930    16.8240 cx         1 MOL       0.000000
     16 C10         33.0430    -8.9140    17.2160 cx         1 MOL       0.000000
     17 C11         31.3040    -3.7740    20.5060 c3         1 MOL       0.000000
     18 C12         30.6230    -2.8610    19.4930 c3         1 MOL       0.000000
     19 C13         29.0990    -2.9470    19.5150 c3         1 MOL       0.000000
     20 C14         36.5380    -2.7560    20.2210 ca         1 MOL       0.000000
     21 C15         37.1580    -3.4820    19.1770 ca         1 MOL       0.000000
     22 C16         38.4980    -3.2960    18.8400 ca         1 MOL       0.000000
     23 C17         39.2920    -2.3760    19.5750 ca         1 MOL       0.000000
     24 Cl1         39.0930    -4.2510    17.5490 cl         1 MOL       0.000000
     25 C18         38.6920    -1.6170    20.6300 ca         1 MOL       0.000000
     26 Cl2         40.9670    -2.1140    19.2380 cl         1 MOL       0.000000
     27 C19         37.3000    -1.8210    20.9570 ca         1 MOL       0.000000
     28 C20         32.6650    -2.9010    23.1030 c3         1 MOL       0.000000
     29 C21         33.5350    -3.3660    24.3230 c3         1 MOL       0.000000
     30 C22         32.8160    -3.1700    25.7060 c3         1 MOL       0.000000
     31 N6          32.3140    -1.7700    25.8860 n4         1 MOL       0.000000
     32 C23         31.4350    -1.3400    24.7810 c3         1 MOL       0.000000
     33 C24         31.6200    -1.6280    27.1920 c3         1 MOL       0.000000
     34 H2          33.1170    -1.1560    25.9000 hn         1 MOL       0.000000
     35 C25         32.1170    -1.4670    23.3750 c3         1 MOL       0.000000
     36 H3          34.3880    -2.1740    17.4050 ha         1 MOL       0.000000
     37 H4          33.8460    -3.0190    15.1590 h4         1 MOL       0.000000
     38 H5          33.3660    -7.5570    15.4390 h1         1 MOL       0.000000
     39 H6          31.1120    -9.3970    16.1960 hc         1 MOL       0.000000
     40 H7          30.6970    -8.5050    17.3370 hc         1 MOL       0.000000
     41 H8          33.3620    -8.6720    18.2080 hc         1 MOL       0.000000
     42 H9          33.6940    -9.7630    17.2040 hc         1 MOL       0.000000
     43 H10         31.2430    -4.7820    20.1510 h1         1 MOL       0.000000
     44 H11         30.7980    -3.6470    21.4400 h1         1 MOL       0.000000
     45 H12         30.9070    -1.8510    19.7040 hc         1 MOL       0.000000
     46 H13         30.9400    -3.1800    18.5220 hc         1 MOL       0.000000
     47 H14         28.7380    -2.6350    20.4730 hc         1 MOL       0.000000
     48 H15         28.7960    -3.9570    19.3310 hc         1 MOL       0.000000
     49 H16         28.6950    -2.3100    18.7560 hc         1 MOL       0.000000
     50 H17         36.6010    -4.1710    18.6480 ha         1 MOL       0.000000
     51 H18         39.2520    -0.9270    21.1550 ha         1 MOL       0.000000
     52 H19         36.8640    -1.2860    21.7250 ha         1 MOL       0.000000
     53 H20         31.8370    -3.5750    23.0340 hc         1 MOL       0.000000
     54 H21         34.4430    -2.8000    24.3280 hc         1 MOL       0.000000
     55 H22         33.7150    -4.4140    24.2040 hc         1 MOL       0.000000
     56 H23         33.5100    -3.3910    26.4900 hx         1 MOL       0.000000
     57 H24         31.9740    -3.8290    25.7360 hx         1 MOL       0.000000
     58 H25         30.5540    -1.9470    24.7890 hx         1 MOL       0.000000
     59 H26         31.2070    -0.3060    24.9350 hx         1 MOL       0.000000
     60 H27         30.7620    -2.2670    27.2110 hx         1 MOL       0.000000
     61 H28         31.3110    -0.6120    27.3230 hx         1 MOL       0.000000
     62 H29         32.2870    -1.9030    27.9820 hx         1 MOL       0.000000
     63 H30         31.3960    -1.2270    22.6210 hc         1 MOL       0.000000
     64 H31         32.9480    -0.7930    23.3550 hc         1 MOL       0.000000
@<TRIPOS>BOND
     1     1     2 1   
     2     2    28 1   
     3     3     2 2   
     4     4     3 1   
     5     5     4 2   
     6     5     1 1   
     7     6     5 1   
     8     7     6 ar  
     9     7    36 1   
    10     8     7 ar  
    11     8    37 1   
    12     9     8 ar  
    13     9    10 ar  
    14    10    11 ar  
    15    11     6 ar  
    16    12    10 1   
    17    12    13 1   
    18    14    15 1   
    19    14    12 1   
    20    14    16 1   
    21    14    38 1   
    22    15    16 1   
    23    15    39 1   
    24    15    40 1   
    25    16    41 1   
    26    16    42 1   
    27    17     1 1   
    28    17    43 1   
    29    17    44 1   
    30    18    19 1   
    31    18    17 1   
    32    18    45 1   
    33    18    46 1   
    34    19    47 1   
    35    19    48 1   
    36    19    49 1   
    37    20     4 1   
    38    20    27 ar  
    39    21    20 ar  
    40    21    50 1   
    41    22    21 ar  
    42    22    23 ar  
    43    23    25 ar  
    44    24    22 1   
    45    25    27 ar  
    46    25    51 1   
    47    26    23 1   
    48    27    52 1   
    49    28    35 1   
    50    28    29 1   
    51    28    53 1   
    52    29    30 1   
    53    29    54 1   
    54    29    55 1   
    55    30    31 1   
    56    30    56 1   
    57    30    57 1   
    58    31    34 1   
    59    31    33 1   
    60    32    31 1   
    61    32    58 1   
    62    32    59 1   
    63    33    60 1   
    64    33    61 1   
    65    33    62 1   
    66    35    32 1   
    67    35    63 1   
    68    35    64 1   
@<TRIPOS>SUBSTRUCTURE
     1 MOL         1 TEMP              0 ****  ****    0 ROOT
