@<TRIPOS>MOLECULE
MOL
   64    68     1     0     0
SMALL
No Charge or Current Charge


@<TRIPOS>ATOM
      1 N1          34.8040    -1.4700    16.9020 na         1 MOL       0.000000
      2 C1          35.8140    -1.5960    16.0060 cc         1 MOL       0.000000
      3 N2          35.7610    -2.7770    15.2920 nc         1 MOL       0.000000
      4 C2          34.5980    -3.5730    15.7140 cc         1 MOL       0.000000
      5 C3          33.9460    -2.7330    16.7610 cd         1 MOL       0.000000
      6 C4          32.8190    -2.8450    17.7800 ca         1 MOL       0.000000
      7 C5          31.5250    -2.4330    17.3610 ca         1 MOL       0.000000
      8 C6          30.5020    -2.5100    18.3330 ca         1 MOL       0.000000
      9 N3          30.7430    -2.9260    19.5930 nb         1 MOL       0.000000
     10 C7          32.0060    -3.2690    19.8840 ca         1 MOL       0.000000
     11 N4          33.0280    -3.2420    19.0300 nb         1 MOL       0.000000
     12 N5          32.3280    -3.6810    21.1330 nh         1 MOL       0.000000
     13 H1          32.0200    -4.6130    21.4460 hn         1 MOL       0.000000
     14 C8          33.0920    -2.8530    22.0420 cx         1 MOL       0.000000
     15 C9          32.7820    -3.8600    23.1450 cx         1 MOL       0.000000
     16 C10         32.3910    -2.4190    23.2370 cx         1 MOL       0.000000
     17 C11         34.6600    -0.2840    17.7790 c3         1 MOL       0.000000
     18 C12         35.7240    -0.2130    18.8680 c3         1 MOL       0.000000
     19 C13         35.7000    -1.3970    19.8300 c3         1 MOL       0.000000
     20 C14         34.2460    -4.8870    15.1040 ca         1 MOL       0.000000
     21 C15         33.7150    -5.9320    15.8970 ca         1 MOL       0.000000
     22 C16         33.3950    -7.1790    15.3600 ca         1 MOL       0.000000
     23 C17         33.6300    -7.4390    13.9840 ca         1 MOL       0.000000
     24 Cl1         32.7580    -8.3320    16.4550 cl         1 MOL       0.000000
     25 C18         34.1550    -6.3990    13.1520 ca         1 MOL       0.000000
     26 Cl2         33.2890    -8.9690    13.2540 cl         1 MOL       0.000000
     27 C19         34.4740    -5.1140    13.7270 ca         1 MOL       0.000000
     28 C20         36.8280    -0.8490    15.6950 c3         1 MOL       0.000000
     29 C21         38.1960    -1.2560    16.3450 c3         1 MOL       0.000000
     30 C22         39.3800    -0.3060    15.9390 c3         1 MOL       0.000000
     31 N6          39.4970    -0.1530    14.4540 n4         1 MOL       0.000000
     32 C23         38.2360     0.2990    13.8330 c3         1 MOL       0.000000
     33 C24         40.6090     0.7700    14.1090 c3         1 MOL       0.000000
     34 H2          39.7240    -1.0600    14.0690 hn         1 MOL       0.000000
     35 C25         37.0240    -0.6390    14.1630 c3         1 MOL       0.000000
     36 H3          31.3430    -2.0970    16.4020 ha         1 MOL       0.000000
     37 H4          29.5410    -2.2400    18.0710 h4         1 MOL       0.000000
     38 H5          33.8190    -2.2940    21.4920 h1         1 MOL       0.000000
     39 H6          33.5670    -4.2490    23.7600 hc         1 MOL       0.000000
     40 H7          32.2780    -4.8010    23.2100 hc         1 MOL       0.000000
     41 H8          31.3580    -2.1460    23.1740 hc         1 MOL       0.000000
     42 H9          32.5600    -1.6480    23.9590 hc         1 MOL       0.000000
     43 H10         33.6970    -0.3200    18.2450 h1         1 MOL       0.000000
     44 H11         34.7750     0.5840    17.1640 h1         1 MOL       0.000000
     45 H12         35.5700     0.6830    19.4320 hc         1 MOL       0.000000
     46 H13         36.6750    -0.2300    18.3770 hc         1 MOL       0.000000
     47 H14         34.7630    -1.4190    20.3450 hc         1 MOL       0.000000
     48 H15         36.4950    -1.2960    20.5400 hc         1 MOL       0.000000
     49 H16         35.8260    -2.3060    19.2800 hc         1 MOL       0.000000
     50 H17         33.5600    -5.7660    16.9040 ha         1 MOL       0.000000
     51 H18         34.3050    -6.5670    12.1450 ha         1 MOL       0.000000
     52 H19         34.8670    -4.3650    13.1360 ha         1 MOL       0.000000
     53 H20         36.5400     0.0840    16.1330 hc         1 MOL       0.000000
     54 H21         38.4370    -2.2520    16.0350 hc         1 MOL       0.000000
     55 H22         38.0790    -1.1830    17.4060 hc         1 MOL       0.000000
     56 H23         39.2130     0.6580    16.3730 hx         1 MOL       0.000000
     57 H24         40.2890    -0.7420    16.2970 hx         1 MOL       0.000000
     58 H25         38.0130     1.2830    14.1890 hx         1 MOL       0.000000
     59 H26         38.3760     0.2820    12.7720 hx         1 MOL       0.000000
     60 H27         40.6760     0.8660    13.0450 hx         1 MOL       0.000000
     61 H28         41.5290     0.3790    14.4910 hx         1 MOL       0.000000
     62 H29         40.4230     1.7300    14.5430 hx         1 MOL       0.000000
     63 H30         37.1930    -1.5910    13.7060 hc         1 MOL       0.000000
     64 H31         36.1390    -0.1710    13.7840 hc         1 MOL       0.000000
@<TRIPOS>BOND
     1     1    17 1   
     2     2     1 1   
     3     3     4 1   
     4     3     2 2   
     5     4     5 2   
     6     5     1 1   
     7     5     6 1   
     8     6    11 ar  
     9     7     6 ar  
    10     7     8 ar  
    11     7    36 1   
    12     8     9 ar  
    13     8    37 1   
    14     9    10 ar  
    15    10    12 1   
    16    11    10 ar  
    17    12    13 1   
    18    12    14 1   
    19    14    15 1   
    20    14    16 1   
    21    14    38 1   
    22    15    16 1   
    23    15    39 1   
    24    15    40 1   
    25    16    41 1   
    26    16    42 1   
    27    17    18 1   
    28    17    43 1   
    29    17    44 1   
    30    18    19 1   
    31    18    45 1   
    32    18    46 1   
    33    19    47 1   
    34    19    48 1   
    35    19    49 1   
    36    20     4 1   
    37    20    21 ar  
    38    21    50 1   
    39    22    21 ar  
    40    22    24 1   
    41    23    22 ar  
    42    25    27 ar  
    43    25    23 ar  
    44    25    51 1   
    45    26    23 1   
    46    27    20 ar  
    47    27    52 1   
    48    28     2 1   
    49    28    29 1   
    50    28    53 1   
    51    29    54 1   
    52    29    55 1   
    53    30    29 1   
    54    30    56 1   
    55    30    57 1   
    56    31    30 1   
    57    32    35 1   
    58    32    31 1   
    59    32    58 1   
    60    32    59 1   
    61    33    31 1   
    62    33    60 1   
    63    33    61 1   
    64    33    62 1   
    65    34    31 1   
    66    35    28 1   
    67    35    63 1   
    68    35    64 1   
@<TRIPOS>SUBSTRUCTURE
     1 MOL         1 TEMP              0 ****  ****    0 ROOT
