@<TRIPOS>MOLECULE
MOL
   27    28     1     0     0
SMALL
No Charge or Current Charge


@<TRIPOS>ATOM
      1 N1          52.4040     4.4410     6.3890 n4         1 MOL       0.000000
      2 H1          51.7840     4.1470     5.6470 hn         1 MOL       0.000000
      3 C1          52.1440     5.8520     6.6170 c3         1 MOL       0.000000
      4 C2          52.7700     6.5140     5.3730 c3         1 MOL       0.000000
      5 C3          53.9600     5.6130     5.0140 c3         1 MOL       0.000000
      6 C4          53.7620     4.3410     5.8770 c3         1 MOL       0.000000
      7 C5          52.1360     3.5480     7.5560 c3         1 MOL       0.000000
      8 C6          50.6850     6.2120     6.7490 ca         1 MOL       0.000000
      9 C7          50.2160     6.8470     7.8790 ca         1 MOL       0.000000
     10 N2          48.9450     7.2170     8.0330 nb         1 MOL       0.000000
     11 C8          48.0680     6.9480     7.0600 ca         1 MOL       0.000000
     12 C9          48.4380     6.3020     5.8930 ca         1 MOL       0.000000
     13 C10         49.7660     5.9480     5.7390 ca         1 MOL       0.000000
     14 H2          52.5520     6.1760     7.5520 hx         1 MOL       0.000000
     15 H3          52.0660     6.5480     4.5680 hc         1 MOL       0.000000
     16 H4          53.0670     7.5250     5.5570 hc         1 MOL       0.000000
     17 H5          54.8850     6.0940     5.2570 hc         1 MOL       0.000000
     18 H6          54.0000     5.3910     3.9680 hc         1 MOL       0.000000
     19 H7          54.4670     4.3190     6.6820 hx         1 MOL       0.000000
     20 H8          53.9140     3.4450     5.3130 hx         1 MOL       0.000000
     21 H9          52.3570     2.5360     7.2890 hx         1 MOL       0.000000
     22 H10         51.1060     3.6270     7.8360 hx         1 MOL       0.000000
     23 H11         52.7530     3.8420     8.3790 hx         1 MOL       0.000000
     24 H12         50.8810     7.0450     8.6430 h4         1 MOL       0.000000
     25 H13         47.0830     7.2310     7.1830 h4         1 MOL       0.000000
     26 H14         47.7430     6.0910     5.1600 ha         1 MOL       0.000000
     27 H15         50.0770     5.4860     4.8700 ha         1 MOL       0.000000
@<TRIPOS>BOND
     1     1     3 1   
     2     1     7 1   
     3     2     1 1   
     4     3     8 1   
     5     3    14 1   
     6     4     3 1   
     7     4    15 1   
     8     4    16 1   
     9     5     4 1   
    10     5     6 1   
    11     5    17 1   
    12     5    18 1   
    13     6     1 1   
    14     6    19 1   
    15     6    20 1   
    16     7    21 1   
    17     7    22 1   
    18     7    23 1   
    19     8     9 ar  
    20     9    10 ar  
    21     9    24 1   
    22    11    10 ar  
    23    11    25 1   
    24    12    11 ar  
    25    12    26 1   
    26    13    12 ar  
    27    13     8 ar  
    28    13    27 1   
@<TRIPOS>SUBSTRUCTURE
     1 MOL         1 TEMP              0 ****  ****    0 ROOT
