@<TRIPOS>MOLECULE
MOL
   27    28     1     0     0
SMALL
No Charge or Current Charge


@<TRIPOS>ATOM
      1 N1          52.6340     9.5130     8.1970 n4         1 MOL       0.000000
      2 H1          52.8110    10.3120     7.6040 hn         1 MOL       0.000000
      3 C1          51.2740     9.6490     8.6880 c3         1 MOL       0.000000
      4 C2          51.3980    10.8020     9.7050 c3         1 MOL       0.000000
      5 C3          52.8140    10.6580    10.2800 c3         1 MOL       0.000000
      6 C4          53.5120     9.6340     9.3500 c3         1 MOL       0.000000
      7 C5          52.8940     8.2960     7.3710 c3         1 MOL       0.000000
      8 C6          50.2480     9.9660     7.6290 ca         1 MOL       0.000000
      9 C7          49.4360     8.9770     7.1170 ca         1 MOL       0.000000
     10 N2          48.4920     9.2080     6.2050 nb         1 MOL       0.000000
     11 C8          48.3270    10.4510     5.7410 ca         1 MOL       0.000000
     12 C9          49.1020    11.5100     6.1830 ca         1 MOL       0.000000
     13 C10         50.0600    11.2570     7.1480 ca         1 MOL       0.000000
     14 H2          50.9150     8.7270     9.0950 hx         1 MOL       0.000000
     15 H3          50.6640    10.7050    10.4780 hc         1 MOL       0.000000
     16 H4          51.2370    11.7600     9.2550 hc         1 MOL       0.000000
     17 H5          53.3270    11.5970    10.2600 hc         1 MOL       0.000000
     18 H6          52.8060    10.3390    11.3010 hc         1 MOL       0.000000
     19 H7          54.4760     9.9920     9.0530 hx         1 MOL       0.000000
     20 H8          53.6700     8.6940     9.8350 hx         1 MOL       0.000000
     21 H9          52.2140     8.2740     6.5450 hx         1 MOL       0.000000
     22 H10         52.7550     7.4210     7.9710 hx         1 MOL       0.000000
     23 H11         53.8990     8.3210     7.0050 hx         1 MOL       0.000000
     24 H12         49.5650     8.0110     7.4560 h4         1 MOL       0.000000
     25 H13         47.5990    10.6270     5.0310 h4         1 MOL       0.000000
     26 H14         48.9690    12.4600     5.8030 ha         1 MOL       0.000000
     27 H15         50.6380    12.0300     7.5130 ha         1 MOL       0.000000
@<TRIPOS>BOND
     1     1     3 1   
     2     1     6 1   
     3     2     1 1   
     4     3     4 1   
     5     3    14 1   
     6     4     5 1   
     7     4    15 1   
     8     4    16 1   
     9     5    17 1   
    10     5    18 1   
    11     6     5 1   
    12     6    19 1   
    13     6    20 1   
    14     7     1 1   
    15     7    21 1   
    16     7    22 1   
    17     7    23 1   
    18     8     3 1   
    19     9     8 ar  
    20     9    24 1   
    21    10     9 ar  
    22    11    12 ar  
    23    11    10 ar  
    24    11    25 1   
    25    12    13 ar  
    26    12    26 1   
    27    13     8 ar  
    28    13    27 1   
@<TRIPOS>SUBSTRUCTURE
     1 MOL         1 TEMP              0 ****  ****    0 ROOT
