@<TRIPOS>MOLECULE
MOL
   57    60     1     0     0
SMALL
No Charge or Current Charge


@<TRIPOS>ATOM
      1 C1          10.8030    25.4410    11.8950 c2         1 MOL       0.000000
      2 C2           9.9340    25.8060    12.8300 ce         1 MOL       0.000000
      3 C3           8.5360    25.2740    12.7390 c          1 MOL       0.000000
      4 C4           8.1620    24.4600    11.5360 ce         1 MOL       0.000000
      5 C5           9.0870    24.1400    10.6340 c2         1 MOL       0.000000
      6 C6           8.6320    23.3350     9.4530 c3         1 MOL       0.000000
      7 C7           9.0520    24.0380     8.1660 c3         1 MOL       0.000000
      8 C8          10.5090    24.4890     8.1740 c3         1 MOL       0.000000
      9 C9          10.9250    25.2540     9.4310 c3         1 MOL       0.000000
     10 C10         10.5340    24.5380    10.7240 c3         1 MOL       0.000000
     11 C11         12.3300    25.8550     9.3920 c3         1 MOL       0.000000
     12 C12         12.7650    26.4430     8.0540 c3         1 MOL       0.000000
     13 C13         12.4420    25.5200     6.8790 c3         1 MOL       0.000000
     14 C14         10.9450    25.2120     6.9030 c3         1 MOL       0.000000
     15 C15         10.6110    24.6550     5.5220 c3         1 MOL       0.000000
     16 C16         11.5850    25.3790     4.5970 c3         1 MOL       0.000000
     17 C17         12.5160    26.1800     5.5020 c3         1 MOL       0.000000
     18 C18         13.3350    24.2820     6.9240 c3         1 MOL       0.000000
     19 C19         11.3420    23.2720    10.9980 c3         1 MOL       0.000000
     20 C20         10.8360    26.1710     3.5300 c3         1 MOL       0.000000
     21 F1          10.1530    26.3770     9.4040 f          1 MOL       0.000000
     22 O1           7.7210    25.5000    13.6300 o          1 MOL       0.000000
     23 C21         13.9270    26.3020     4.9480 c          1 MOL       0.000000
     24 O2          14.8990    26.0670     5.6640 o          1 MOL       0.000000
     25 C22         14.2120    26.7260     3.5170 c3         1 MOL       0.000000
     26 O3          13.5100    27.9240     3.2190 oh         1 MOL       0.000000
     27 H1          13.8610    28.6860     3.8150 ho         1 MOL       0.000000
     28 O4          11.9900    27.4980     5.5720 oh         1 MOL       0.000000
     29 H2          11.1660    27.5720     4.9590 ho         1 MOL       0.000000
     30 O5          13.2890    24.8600     9.7200 oh         1 MOL       0.000000
     31 H3          14.2300    25.1920     9.4670 ho         1 MOL       0.000000
     32 H4          11.7610    25.8160    11.9810 ha         1 MOL       0.000000
     33 H5          10.2130    26.4380    13.5970 ha         1 MOL       0.000000
     34 H6           7.1870    24.1480    11.4080 ha         1 MOL       0.000000
     35 H7           9.0780    22.3630     9.4910 hc         1 MOL       0.000000
     36 H8           7.5660    23.2390     9.4760 hc         1 MOL       0.000000
     37 H9           8.9100    23.3630     7.3480 hc         1 MOL       0.000000
     38 H10          8.4480    24.9160     8.0730 hc         1 MOL       0.000000
     39 H11         11.0500    23.5660     8.1960 hc         1 MOL       0.000000
     40 H12         12.2830    26.6590    10.0970 h1         1 MOL       0.000000
     41 H13         12.2600    27.3750     7.9080 hc         1 MOL       0.000000
     42 H14         13.8270    26.5730     8.0850 hc         1 MOL       0.000000
     43 H15         10.3100    26.0650     7.0200 hc         1 MOL       0.000000
     44 H16         10.7680    23.5970     5.4890 hc         1 MOL       0.000000
     45 H17          9.5880    24.8070     5.2490 hc         1 MOL       0.000000
     46 H18         12.1900    24.7150     4.0150 hc         1 MOL       0.000000
     47 H19         13.1010    23.6430     6.0980 hc         1 MOL       0.000000
     48 H20         13.1690    23.7550     7.8400 hc         1 MOL       0.000000
     49 H21         14.3610    24.5800     6.8650 hc         1 MOL       0.000000
     50 H22         11.1980    22.5770    10.1980 hc         1 MOL       0.000000
     51 H23         11.0140    22.8320    11.9170 hc         1 MOL       0.000000
     52 H24         12.3800    23.5200    11.0720 hc         1 MOL       0.000000
     53 H25         10.1880    26.8800     4.0010 hc         1 MOL       0.000000
     54 H26         10.2560    25.5010     2.9300 hc         1 MOL       0.000000
     55 H27         11.5390    26.6870     2.9100 hc         1 MOL       0.000000
     56 H28         15.2620    26.8920     3.3980 h1         1 MOL       0.000000
     57 H29         13.8900    25.9540     2.8500 h1         1 MOL       0.000000
@<TRIPOS>BOND
     1     1     2 2   
     2     1    32 1   
     3     2    33 1   
     4     3     2 1   
     5     3    22 2   
     6     4     3 1   
     7     4    34 1   
     8     5    10 1   
     9     5     4 2   
    10     6     5 1   
    11     6    35 1   
    12     6    36 1   
    13     7     8 1   
    14     7     6 1   
    15     7    37 1   
    16     7    38 1   
    17     8    14 1   
    18     8    39 1   
    19     9     8 1   
    20    10     9 1   
    21    10    19 1   
    22    10     1 1   
    23    11     9 1   
    24    11    30 1   
    25    11    40 1   
    26    12    11 1   
    27    12    41 1   
    28    12    42 1   
    29    13    17 1   
    30    13    18 1   
    31    13    12 1   
    32    14    13 1   
    33    14    43 1   
    34    15    14 1   
    35    15    44 1   
    36    15    45 1   
    37    16    17 1   
    38    16    15 1   
    39    16    46 1   
    40    17    23 1   
    41    17    28 1   
    42    18    47 1   
    43    18    48 1   
    44    18    49 1   
    45    19    50 1   
    46    19    51 1   
    47    19    52 1   
    48    20    16 1   
    49    20    53 1   
    50    20    54 1   
    51    20    55 1   
    52    21     9 1   
    53    23    24 2   
    54    25    23 1   
    55    25    56 1   
    56    25    57 1   
    57    26    25 1   
    58    26    27 1   
    59    29    28 1   
    60    31    30 1   
@<TRIPOS>SUBSTRUCTURE
     1 MOL         1 TEMP              0 ****  ****    0 ROOT
