@<TRIPOS>MOLECULE
MOL
   57    60     1     0     0
SMALL
No Charge or Current Charge


@<TRIPOS>ATOM
      1 C1           8.1090    24.4580    10.4660 c2         1 MOL       0.000000
      2 C2           7.7230    23.7330    11.5080 ce         1 MOL       0.000000
      3 C3           8.4540    23.9160    12.8040 c          1 MOL       0.000000
      4 C4           9.6530    24.8160    12.8220 ce         1 MOL       0.000000
      5 C5           9.9850    25.5070    11.7350 c2         1 MOL       0.000000
      6 C6          11.2050    26.3740    11.8280 c3         1 MOL       0.000000
      7 C7          12.1600    26.0350    10.6870 c3         1 MOL       0.000000
      8 C8          11.4700    25.9580     9.3290 c3         1 MOL       0.000000
      9 C9          10.2010    25.1050     9.3140 c3         1 MOL       0.000000
     10 C10          9.2270    25.4630    10.4370 c3         1 MOL       0.000000
     11 C11          9.5840    24.8810     7.9340 c3         1 MOL       0.000000
     12 C12         10.5720    24.6640     6.7910 c3         1 MOL       0.000000
     13 C13         11.7170    25.6750     6.8120 c3         1 MOL       0.000000
     14 C14         12.4040    25.6010     8.1760 c3         1 MOL       0.000000
     15 C15         13.7510    26.2970     8.0040 c3         1 MOL       0.000000
     16 C16         14.1230    26.0090     6.5530 c3         1 MOL       0.000000
     17 C17         12.9150    25.3100     5.9350 c3         1 MOL       0.000000
     18 C18         11.1980    27.0650     6.4500 c3         1 MOL       0.000000
     19 C19          8.5460    26.8180    10.2570 c3         1 MOL       0.000000
     20 C20         15.4500    25.2620     6.4680 c3         1 MOL       0.000000
     21 F1          10.6420    23.8510     9.6170 f          1 MOL       0.000000
     22 O1           8.0750    23.3430    13.8230 o          1 MOL       0.000000
     23 C21         12.7270    25.6360     4.4610 c          1 MOL       0.000000
     24 O2          11.7090    25.2800     3.8710 o          1 MOL       0.000000
     25 C22         13.7690    26.3860     3.6490 c3         1 MOL       0.000000
     26 O3          13.2760    27.6700     3.2970 oh         1 MOL       0.000000
     27 H1          12.9640    27.6610     2.3150 ho         1 MOL       0.000000
     28 O4          13.1610    23.9130     6.0160 oh         1 MOL       0.000000
     29 H2          13.5790    23.6900     6.9300 ho         1 MOL       0.000000
     30 O5           8.7950    26.0040     7.5700 oh         1 MOL       0.000000
     31 H3           8.1980    26.2780     8.3650 ho         1 MOL       0.000000
     32 H4           7.5890    24.3180     9.5860 ha         1 MOL       0.000000
     33 H5           6.9420    23.0630    11.4290 ha         1 MOL       0.000000
     34 H6          10.2220    24.8990    13.6790 ha         1 MOL       0.000000
     35 H7          10.9180    27.4020    11.7590 hc         1 MOL       0.000000
     36 H8          11.6940    26.2020    12.7640 hc         1 MOL       0.000000
     37 H9          12.9170    26.7900    10.6420 hc         1 MOL       0.000000
     38 H10         12.5690    25.0670    10.8910 hc         1 MOL       0.000000
     39 H11         11.1510    26.9650     9.1590 hc         1 MOL       0.000000
     40 H12          9.0220    23.9780     8.0500 h1         1 MOL       0.000000
     41 H13         10.9820    23.6790     6.8730 hc         1 MOL       0.000000
     42 H14         10.0400    24.7920     5.8710 hc         1 MOL       0.000000
     43 H15         12.6430    24.6130     8.5100 hc         1 MOL       0.000000
     44 H16         13.6610    27.3500     8.1730 hc         1 MOL       0.000000
     45 H17         14.4880    25.9510     8.6980 hc         1 MOL       0.000000
     46 H18         14.3160    26.8930     5.9820 hc         1 MOL       0.000000
     47 H19         10.7340    27.0330     5.4870 hc         1 MOL       0.000000
     48 H20         12.0140    27.7560     6.4290 hc         1 MOL       0.000000
     49 H21         10.4820    27.3800     7.1810 hc         1 MOL       0.000000
     50 H22          7.9960    26.8210     9.3390 hc         1 MOL       0.000000
     51 H23          9.2870    27.5890    10.2310 hc         1 MOL       0.000000
     52 H24          7.8780    26.9930    11.0740 hc         1 MOL       0.000000
     53 H25         15.3780    24.3440     7.0130 hc         1 MOL       0.000000
     54 H26         16.2270    25.8660     6.8880 hc         1 MOL       0.000000
     55 H27         15.6760    25.0520     5.4440 hc         1 MOL       0.000000
     56 H28         14.6600    26.4960     4.2310 h1         1 MOL       0.000000
     57 H29         13.9840    25.8350     2.7570 h1         1 MOL       0.000000
@<TRIPOS>BOND
     1     1     2 2   
     2     1    32 1   
     3     2     3 1   
     4     2    33 1   
     5     3     4 1   
     6     3    22 2   
     7     4    34 1   
     8     5     6 1   
     9     5     4 2   
    10     6    35 1   
    11     6    36 1   
    12     7     6 1   
    13     7    37 1   
    14     7    38 1   
    15     8    14 1   
    16     8     7 1   
    17     8    39 1   
    18     9    11 1   
    19     9     8 1   
    20     9    21 1   
    21    10     9 1   
    22    10     1 1   
    23    10     5 1   
    24    11    40 1   
    25    12    13 1   
    26    12    11 1   
    27    12    41 1   
    28    12    42 1   
    29    13    17 1   
    30    14    13 1   
    31    14    43 1   
    32    15    14 1   
    33    15    44 1   
    34    15    45 1   
    35    16    17 1   
    36    16    15 1   
    37    16    46 1   
    38    17    23 1   
    39    17    28 1   
    40    18    13 1   
    41    18    47 1   
    42    18    48 1   
    43    18    49 1   
    44    19    10 1   
    45    19    50 1   
    46    19    51 1   
    47    19    52 1   
    48    20    16 1   
    49    20    53 1   
    50    20    54 1   
    51    20    55 1   
    52    24    23 2   
    53    25    23 1   
    54    25    56 1   
    55    25    57 1   
    56    26    25 1   
    57    27    26 1   
    58    28    29 1   
    59    30    11 1   
    60    30    31 1   
@<TRIPOS>SUBSTRUCTURE
     1 MOL         1 TEMP              0 ****  ****    0 ROOT
