@<TRIPOS>MOLECULE
MOL
   57    60     1     0     0
SMALL
No Charge or Current Charge


@<TRIPOS>ATOM
      1 C1          10.9340    26.8960     5.5110 c2         1 MOL       0.000000
      2 C2          11.7030    27.6330     4.7190 ce         1 MOL       0.000000
      3 C3          13.0270    27.0700     4.2980 c          1 MOL       0.000000
      4 C4          13.4630    25.7620     4.8890 ce         1 MOL       0.000000
      5 C5          12.6400    25.0820     5.6830 c2         1 MOL       0.000000
      6 C6          13.1530    23.7890     6.2440 c3         1 MOL       0.000000
      7 C7          13.0030    23.7980     7.7620 c3         1 MOL       0.000000
      8 C8          11.6230    24.2530     8.2270 c3         1 MOL       0.000000
      9 C9          11.1320    25.5460     7.5750 c3         1 MOL       0.000000
     10 C10         11.2520    25.5290     6.0500 c3         1 MOL       0.000000
     11 C11          9.8280    26.1070     8.1410 c3         1 MOL       0.000000
     12 C12          9.6560    25.9910     9.6520 c3         1 MOL       0.000000
     13 C13         10.0240    24.6030    10.1760 c3         1 MOL       0.000000
     14 C14         11.4560    24.2880     9.7440 c3         1 MOL       0.000000
     15 C15         11.9080    23.1200    10.6160 c3         1 MOL       0.000000
     16 C16         11.1660    23.3430    11.9300 c3         1 MOL       0.000000
     17 C17         10.2200    24.5170    11.6900 c3         1 MOL       0.000000
     18 C18          8.9920    23.5760     9.7150 c3         1 MOL       0.000000
     19 C19         10.2680    24.5860     5.3630 c3         1 MOL       0.000000
     20 C20         12.1430    23.4910    13.0910 c3         1 MOL       0.000000
     21 F1          12.0290    26.4850     7.9880 f          1 MOL       0.000000
     22 O1          13.7320    27.6670     3.4890 o          1 MOL       0.000000
     23 C21          8.9240    24.4100    12.4780 c          1 MOL       0.000000
     24 O2           8.5540    23.3250    12.9230 o          1 MOL       0.000000
     25 C22          8.0230    25.6060    12.7400 c3         1 MOL       0.000000
     26 O3           6.8080    25.4640    12.0200 oh         1 MOL       0.000000
     27 H1           6.8210    24.5770    11.4960 ho         1 MOL       0.000000
     28 O4          10.8850    25.6830    12.1550 oh         1 MOL       0.000000
     29 H2          11.8780    25.4680    12.3240 ho         1 MOL       0.000000
     30 O5           8.7210    25.4320     7.5610 oh         1 MOL       0.000000
     31 H3           7.8620    25.9770     7.7240 ho         1 MOL       0.000000
     32 H4          10.0260    27.3020     5.7850 ha         1 MOL       0.000000
     33 H5          11.3980    28.5670     4.4020 ha         1 MOL       0.000000
     34 H6          14.4020    25.3890     4.6790 ha         1 MOL       0.000000
     35 H7          14.1860    23.6740     5.9880 hc         1 MOL       0.000000
     36 H8          12.5910    22.9750     5.8350 hc         1 MOL       0.000000
     37 H9          13.7360    24.4610     8.1720 hc         1 MOL       0.000000
     38 H10         13.1370    22.7920     8.1010 hc         1 MOL       0.000000
     39 H11         10.9780    23.4770     7.8700 hc         1 MOL       0.000000
     40 H12          9.8720    27.1490     7.9010 h1         1 MOL       0.000000
     41 H13          8.6340    26.1910     9.8980 hc         1 MOL       0.000000
     42 H14         10.3160    26.6980    10.1100 hc         1 MOL       0.000000
     43 H15         12.1660    25.0660     9.9310 hc         1 MOL       0.000000
     44 H16         12.9670    23.1440    10.7670 hc         1 MOL       0.000000
     45 H17         11.6970    22.1680    10.1760 hc         1 MOL       0.000000
     46 H18         10.5740    22.5040    12.2300 hc         1 MOL       0.000000
     47 H19          8.8660    23.6480     8.6550 hc         1 MOL       0.000000
     48 H20          8.0570    23.7670    10.1990 hc         1 MOL       0.000000
     49 H21          9.3300    22.5930     9.9680 hc         1 MOL       0.000000
     50 H22         10.4130    24.6300     4.3040 hc         1 MOL       0.000000
     51 H23          9.2670    24.8820     5.5990 hc         1 MOL       0.000000
     52 H24         10.4340    23.5860     5.7050 hc         1 MOL       0.000000
     53 H25         12.7990    24.3150    12.9020 hc         1 MOL       0.000000
     54 H26         12.7170    22.5930    13.1910 hc         1 MOL       0.000000
     55 H27         11.5990    23.6690    13.9950 hc         1 MOL       0.000000
     56 H28          7.8100    25.6670    13.7870 h1         1 MOL       0.000000
     57 H29          8.5200    26.4980    12.4190 h1         1 MOL       0.000000
@<TRIPOS>BOND
     1     1    10 1   
     2     1    32 1   
     3     2     1 2   
     4     2    33 1   
     5     3     2 1   
     6     3     4 1   
     7     4     5 2   
     8     4    34 1   
     9     5    10 1   
    10     5     6 1   
    11     6     7 1   
    12     6    35 1   
    13     6    36 1   
    14     7     8 1   
    15     7    37 1   
    16     7    38 1   
    17     8     9 1   
    18     8    39 1   
    19     9    10 1   
    20     9    21 1   
    21    10    19 1   
    22    11     9 1   
    23    11    12 1   
    24    11    40 1   
    25    12    13 1   
    26    12    41 1   
    27    12    42 1   
    28    13    14 1   
    29    14     8 1   
    30    14    15 1   
    31    14    43 1   
    32    15    16 1   
    33    15    44 1   
    34    15    45 1   
    35    16    17 1   
    36    16    20 1   
    37    16    46 1   
    38    17    13 1   
    39    17    28 1   
    40    17    23 1   
    41    18    13 1   
    42    18    47 1   
    43    18    48 1   
    44    18    49 1   
    45    19    50 1   
    46    19    51 1   
    47    19    52 1   
    48    20    53 1   
    49    20    54 1   
    50    20    55 1   
    51    22     3 2   
    52    23    25 1   
    53    23    24 2   
    54    25    56 1   
    55    25    57 1   
    56    26    25 1   
    57    27    26 1   
    58    28    29 1   
    59    30    31 1   
    60    30    11 1   
@<TRIPOS>SUBSTRUCTURE
     1 MOL         1 TEMP              0 ****  ****    0 ROOT
