@<TRIPOS>MOLECULE
MOL
   46    47     1     0     0
SMALL
No Charge or Current Charge


@<TRIPOS>ATOM
      1 C1          15.0100    -8.3030    16.3600 c3         1 MOL       0.000000
      2 C2          15.8140    -7.2870    15.9520 c1         1 MOL       0.000000
      3 N1          15.7580    -6.5890    14.6600 n          1 MOL       0.000000
      4 C3          16.6150    -6.8290    13.6270 c          1 MOL       0.000000
      5 O1          17.5000    -7.6830    13.6650 o          1 MOL       0.000000
      6 H1          15.0270    -5.8750    14.5270 hn         1 MOL       0.000000
      7 C4          16.3800    -5.9960    12.4530 ca         1 MOL       0.000000
      8 C5          15.0690    -5.8520    11.9530 ca         1 MOL       0.000000
      9 C6          14.8050    -4.8920    10.9600 ca         1 MOL       0.000000
     10 C7          15.8570    -4.0750    10.4680 ca         1 MOL       0.000000
     11 C8          17.1840    -4.2570    10.9230 ca         1 MOL       0.000000
     12 C9          17.4490    -5.2330    11.9000 ca         1 MOL       0.000000
     13 C10         16.8060    -6.7540    16.9270 c          1 MOL       0.000000
     14 O2          17.9000    -7.3460    17.0270 oh         1 MOL       0.000000
     15 O3          16.5070    -5.7870    17.6620 o          1 MOL       0.000000
     16 C11         15.3540    -9.6680    16.7960 ca         1 MOL       0.000000
     17 C12         16.2220   -10.5060    16.0610 ca         1 MOL       0.000000
     18 C13         16.3990   -11.8580    16.4550 ca         1 MOL       0.000000
     19 C14         15.7860   -12.3520    17.6140 ca         1 MOL       0.000000
     20 C15         14.9440   -11.4990    18.3310 ca         1 MOL       0.000000
     21 C16         14.7410   -10.1940    17.9200 ca         1 MOL       0.000000
     22 O4          16.0350   -13.6430    18.0370 os         1 MOL       0.000000
     23 C17         16.7280   -13.9400    19.2230 ca         1 MOL       0.000000
     24 C18         16.0280   -14.4330    20.3410 ca         1 MOL       0.000000
     25 C19         16.7240   -14.7770    21.5340 ca         1 MOL       0.000000
     26 Br1         14.2010   -14.7840    20.1740 br         1 MOL       0.000000
     27 C20         18.1280   -14.6670    21.5850 ca         1 MOL       0.000000
     28 C21         18.8490   -14.2150    20.4600 ca         1 MOL       0.000000
     29 C22         18.1470   -13.8460    19.2980 ca         1 MOL       0.000000
     30 H2          14.3410    -8.4530    15.5380 hc         1 MOL       0.000000
     31 H3          14.7610    -7.9070    17.3220 hc         1 MOL       0.000000
     32 H4          14.3080    -6.4480    12.3140 ha         1 MOL       0.000000
     33 H5          13.8480    -4.7810    10.5890 ha         1 MOL       0.000000
     34 H6          15.6520    -3.3410     9.7720 ha         1 MOL       0.000000
     35 H7          17.9500    -3.6790    10.5420 ha         1 MOL       0.000000
     36 H8          18.4180    -5.3970    12.2160 ha         1 MOL       0.000000
     37 H9          16.1280    -7.0720    16.2170 h5         1 MOL       0.000000
     38 H10         18.0960    -8.0680    16.4620 ho         1 MOL       0.000000
     39 H11         16.7260   -10.1360    15.2400 ha         1 MOL       0.000000
     40 H12         16.9860   -12.4840    15.8820 ha         1 MOL       0.000000
     41 H13         14.4670   -11.8470    19.1780 ha         1 MOL       0.000000
     42 H14         14.1100    -9.5910    18.4710 ha         1 MOL       0.000000
     43 H15         16.2010   -15.1070    22.3600 ha         1 MOL       0.000000
     44 H16         18.6310   -14.9180    22.4500 ha         1 MOL       0.000000
     45 H17         19.8790   -14.1560    20.4890 ha         1 MOL       0.000000
     46 H18         18.6730   -13.4990    18.4810 ha         1 MOL       0.000000
@<TRIPOS>BOND
     1     1    16 1   
     2     1    30 1   
     3     1    31 1   
     4     2     1 1   
     5     3     2 3   
     6     4     5 2   
     7     4     3 1   
     8     6     3 1   
     9     7     4 1   
    10     8     7 ar  
    11     8    32 1   
    12     9     8 ar  
    13     9    33 1   
    14    10    11 ar  
    15    10     9 ar  
    16    10    34 1   
    17    11    12 ar  
    18    11    35 1   
    19    12     7 ar  
    20    12    36 1   
    21    13    14 1   
    22    13    15 2   
    23    13    37 1   
    24    14    38 1   
    25    16    21 ar  
    26    17    18 ar  
    27    17    16 ar  
    28    17    39 1   
    29    18    19 ar  
    30    18    40 1   
    31    19    22 1   
    32    19    20 ar  
    33    20    41 1   
    34    21    20 ar  
    35    21    42 1   
    36    22    23 1   
    37    23    29 ar  
    38    23    24 ar  
    39    24    25 ar  
    40    25    27 ar  
    41    25    43 1   
    42    26    24 1   
    43    27    44 1   
    44    28    27 ar  
    45    28    45 1   
    46    29    28 ar  
    47    29    46 1   
@<TRIPOS>SUBSTRUCTURE
     1 MOL         1 TEMP              0 ****  ****    0 ROOT
