@<TRIPOS>MOLECULE
MOL
   46    47     1     0     0
SMALL
No Charge or Current Charge


@<TRIPOS>ATOM
      1 C1          16.1420    -6.1650    19.8790 c3         1 MOL       0.000000
      2 C2          16.2280    -4.9830    20.5420 c1         1 MOL       0.000000
      3 N1          16.6770    -4.7850    21.9270 n          1 MOL       0.000000
      4 C3          17.9320    -4.3730    22.2690 c          1 MOL       0.000000
      5 O1          18.8010    -4.0930    21.4460 o          1 MOL       0.000000
      6 H1          16.0040    -4.9670    22.6850 hn         1 MOL       0.000000
      7 C4          18.1520    -4.2700    23.7080 ca         1 MOL       0.000000
      8 C5          17.1350    -3.7470    24.5320 ca         1 MOL       0.000000
      9 C6          17.2550    -3.8390    25.9300 ca         1 MOL       0.000000
     10 C7          18.3970    -4.4580    26.5020 ca         1 MOL       0.000000
     11 C8          19.4470    -4.9320    25.6810 ca         1 MOL       0.000000
     12 C9          19.3340    -4.8170    24.2840 ca         1 MOL       0.000000
     13 C10         15.9210    -3.7390    19.7830 c          1 MOL       0.000000
     14 O2          16.6920    -3.4160    18.8560 oh         1 MOL       0.000000
     15 O3          14.9570    -3.0180    20.1230 o          1 MOL       0.000000
     16 C11         16.2310    -6.4530    18.4360 ca         1 MOL       0.000000
     17 C12         15.1020    -6.4500    17.5890 ca         1 MOL       0.000000
     18 C13         15.2300    -6.8770    16.2400 ca         1 MOL       0.000000
     19 C14         16.4820    -7.2250    15.7160 ca         1 MOL       0.000000
     20 C15         17.5850    -7.2060    16.5720 ca         1 MOL       0.000000
     21 C16         17.4490    -6.8290    17.8960 ca         1 MOL       0.000000
     22 O4          16.6100    -7.5540    14.3810 os         1 MOL       0.000000
     23 C17         16.6700    -6.5920    13.3580 ca         1 MOL       0.000000
     24 C18         17.9110    -6.0350    12.9890 ca         1 MOL       0.000000
     25 C19         17.9900    -5.0910    11.9270 ca         1 MOL       0.000000
     26 Br1         19.4630    -6.6820    13.8030 br         1 MOL       0.000000
     27 C20         16.8300    -4.7430    11.2080 ca         1 MOL       0.000000
     28 C21         15.5870    -5.3220    11.5370 ca         1 MOL       0.000000
     29 C22         15.5150    -6.2280    12.6100 ca         1 MOL       0.000000
     30 H2          16.9160    -6.7640    20.3120 hc         1 MOL       0.000000
     31 H3          15.0870    -6.3090    19.9860 hc         1 MOL       0.000000
     32 H4          16.3060    -3.2990    24.1110 ha         1 MOL       0.000000
     33 H5          16.5140    -3.4570    26.5390 ha         1 MOL       0.000000
     34 H6          18.4620    -4.5630    27.5270 ha         1 MOL       0.000000
     35 H7          20.2870    -5.3580    26.1030 ha         1 MOL       0.000000
     36 H8          20.1080    -5.1290    23.6760 ha         1 MOL       0.000000
     37 H9          16.0840    -4.6270    20.2840 h5         1 MOL       0.000000
     38 H10         17.4060    -3.9770    18.6240 ho         1 MOL       0.000000
     39 H11         14.1860    -6.1380    17.9480 ha         1 MOL       0.000000
     40 H12         14.3920    -6.9310    15.6400 ha         1 MOL       0.000000
     41 H13         18.5140    -7.4770    16.2120 ha         1 MOL       0.000000
     42 H14         18.2840    -6.8280    18.5020 ha         1 MOL       0.000000
     43 H15         18.8960    -4.6620    11.6840 ha         1 MOL       0.000000
     44 H16         16.8900    -4.0610    10.4360 ha         1 MOL       0.000000
     45 H17         14.7410    -5.0840    10.9970 ha         1 MOL       0.000000
     46 H18         14.6020    -6.6390    12.8610 ha         1 MOL       0.000000
@<TRIPOS>BOND
     1     1     2 1   
     2     1    30 1   
     3     1    31 1   
     4     2     3 3   
     5     3     4 1   
     6     3     6 1   
     7     4     7 1   
     8     5     4 2   
     9     7    12 ar  
    10     7     8 ar  
    11     8     9 ar  
    12     8    32 1   
    13     9    10 ar  
    14     9    33 1   
    15    10    34 1   
    16    11    10 ar  
    17    11    35 1   
    18    12    11 ar  
    19    12    36 1   
    20    13    15 2   
    21    13    37 1   
    22    14    13 1   
    23    14    38 1   
    24    16     1 1   
    25    17    16 ar  
    26    17    39 1   
    27    18    17 ar  
    28    18    40 1   
    29    19    18 ar  
    30    19    20 ar  
    31    20    21 ar  
    32    20    41 1   
    33    21    16 ar  
    34    21    42 1   
    35    22    19 1   
    36    23    22 1   
    37    24    23 ar  
    38    24    26 1   
    39    25    24 ar  
    40    25    43 1   
    41    27    28 ar  
    42    27    25 ar  
    43    27    44 1   
    44    28    29 ar  
    45    28    45 1   
    46    29    23 ar  
    47    29    46 1   
@<TRIPOS>SUBSTRUCTURE
     1 MOL         1 TEMP              0 ****  ****    0 ROOT
