@<TRIPOS>MOLECULE
MOL
   46    47     1     0     0
SMALL
No Charge or Current Charge


@<TRIPOS>ATOM
      1 C1          14.9470    -7.1660    17.1820 c3         1 MOL       0.000000
      2 C2          15.3790    -7.7390    16.0290 c1         1 MOL       0.000000
      3 N1          15.5450    -7.0760    14.7280 n          1 MOL       0.000000
      4 C3          16.7450    -6.6520    14.2370 c          1 MOL       0.000000
      5 O1          17.8130    -6.8160    14.8230 o          1 MOL       0.000000
      6 H1          14.7050    -6.9230    14.1520 hn         1 MOL       0.000000
      7 C4          16.6570    -5.9990    12.9350 ca         1 MOL       0.000000
      8 C5          15.4150    -5.9350    12.2710 ca         1 MOL       0.000000
      9 C6          15.2790    -5.1310    11.1250 ca         1 MOL       0.000000
     10 C7          16.3910    -4.3900    10.6450 ca         1 MOL       0.000000
     11 C8          17.6540    -4.4980    11.2730 ca         1 MOL       0.000000
     12 C9          17.7920    -5.3210    12.4060 ca         1 MOL       0.000000
     13 C10         15.8130    -9.1630    16.0830 c          1 MOL       0.000000
     14 O2          14.9680   -10.0400    15.8070 oh         1 MOL       0.000000
     15 O3          16.9700    -9.4530    16.4610 o          1 MOL       0.000000
     16 C11         15.6390    -6.2490    18.1040 ca         1 MOL       0.000000
     17 C12         15.9050    -4.9010    17.7790 ca         1 MOL       0.000000
     18 C13         16.7020    -4.1090    18.6470 ca         1 MOL       0.000000
     19 C14         17.1630    -4.6260    19.8660 ca         1 MOL       0.000000
     20 C15         16.8740    -5.9580    20.1700 ca         1 MOL       0.000000
     21 C16         16.1320    -6.7380    19.3020 ca         1 MOL       0.000000
     22 O4          17.8620    -3.8210    20.7430 os         1 MOL       0.000000
     23 C17         17.5720    -3.7510    22.1160 ca         1 MOL       0.000000
     24 C18         16.3400    -3.2190    22.5470 ca         1 MOL       0.000000
     25 C19         16.0170    -3.1800    23.9320 ca         1 MOL       0.000000
     26 Br1         15.0790    -2.7200    21.2630 br         1 MOL       0.000000
     27 C20         16.9100    -3.7200    24.8780 ca         1 MOL       0.000000
     28 C21         18.1280    -4.2960    24.4600 ca         1 MOL       0.000000
     29 C22         18.4530    -4.2960    23.0920 ca         1 MOL       0.000000
     30 H2          14.6720    -7.9960    17.7980 hc         1 MOL       0.000000
     31 H3          14.2860    -6.4490    16.7420 hc         1 MOL       0.000000
     32 H4          14.6100    -6.4750    12.6240 ha         1 MOL       0.000000
     33 H5          14.3730    -5.0800    10.6340 ha         1 MOL       0.000000
     34 H6          16.2770    -3.7670     9.8300 ha         1 MOL       0.000000
     35 H7          18.4660    -3.9780    10.9040 ha         1 MOL       0.000000
     36 H8          18.7150    -5.4330    12.8530 ha         1 MOL       0.000000
     37 H9          15.5490    -8.1690    15.9970 h5         1 MOL       0.000000
     38 H10         14.1090    -9.7910    15.5260 ho         1 MOL       0.000000
     39 H11         15.5210    -4.4920    16.9130 ha         1 MOL       0.000000
     40 H12         16.9450    -3.1430    18.3780 ha         1 MOL       0.000000
     41 H13         17.2180    -6.3650    21.0530 ha         1 MOL       0.000000
     42 H14         15.9390    -7.7190    19.5560 ha         1 MOL       0.000000
     43 H15         15.1290    -2.7560    24.2430 ha         1 MOL       0.000000
     44 H16         16.6720    -3.6940    25.8820 ha         1 MOL       0.000000
     45 H17         18.7730    -4.7120    25.1500 ha         1 MOL       0.000000
     46 H18         19.3520    -4.7010    22.7880 ha         1 MOL       0.000000
@<TRIPOS>BOND
     1     1    16 1   
     2     1    30 1   
     3     1    31 1   
     4     2     1 1   
     5     3     2 3   
     6     4     3 1   
     7     4     5 2   
     8     6     3 1   
     9     7     4 1   
    10     8     7 ar  
    11     8    32 1   
    12     9     8 ar  
    13     9    33 1   
    14    10     9 ar  
    15    10    11 ar  
    16    10    34 1   
    17    11    12 ar  
    18    11    35 1   
    19    12     7 ar  
    20    12    36 1   
    21    13    15 2   
    22    13    37 1   
    23    14    13 1   
    24    14    38 1   
    25    16    21 ar  
    26    17    16 ar  
    27    17    18 ar  
    28    17    39 1   
    29    18    19 ar  
    30    18    40 1   
    31    19    20 ar  
    32    19    22 1   
    33    20    41 1   
    34    21    20 ar  
    35    21    42 1   
    36    22    23 1   
    37    23    24 ar  
    38    23    29 ar  
    39    24    25 ar  
    40    25    27 ar  
    41    25    43 1   
    42    26    24 1   
    43    27    44 1   
    44    28    27 ar  
    45    28    45 1   
    46    29    28 ar  
    47    29    46 1   
@<TRIPOS>SUBSTRUCTURE
     1 MOL         1 TEMP              0 ****  ****    0 ROOT
