@<TRIPOS>MOLECULE
MOL
   36    37     1     0     0
SMALL
No Charge or Current Charge


@<TRIPOS>ATOM
      1 N1          26.8140    25.7150    43.9800 na         1 MOL       0.000000
      2 C1          26.0210    25.9730    45.0830 cc         1 MOL       0.000000
      3 N2          24.8100    26.3000    44.7170 nd         1 MOL       0.000000
      4 C2          24.7710    26.2690    43.3450 cd         1 MOL       0.000000
      5 C3          23.6950    26.5420    42.4140 c          1 MOL       0.000000
      6 O1          22.5310    26.8740    42.6960 o          1 MOL       0.000000
      7 N3          24.0810    26.3940    41.0470 n          1 MOL       0.000000
      8 H1          23.3700    26.5690    40.3220 hn         1 MOL       0.000000
      9 C4          25.3780    26.0200    40.6280 cc         1 MOL       0.000000
     10 N4          26.4010    25.7600    41.5210 nd         1 MOL       0.000000
     11 C5          26.0230    25.9050    42.8540 cc         1 MOL       0.000000
     12 C6          28.1270    25.2770    44.1140 c3         1 MOL       0.000000
     13 C7          29.1310    26.4390    43.8960 c3         1 MOL       0.000000
     14 C8          29.7440    26.8620    45.2500 c3         1 MOL       0.000000
     15 C9          29.9890    25.6310    46.1800 c3         1 MOL       0.000000
     16 C10         31.5010    25.4400    46.4720 c3         1 MOL       0.000000
     17 F1          31.9210    26.4430    47.2620 f          1 MOL       0.000000
     18 F2          32.1860    25.4880    45.3190 f          1 MOL       0.000000
     19 P1          31.7520    24.0990    47.1440 p5         1 MOL       0.000000
     20 O2          30.4630    23.4470    47.5140 oh         1 MOL       0.000000
     21 O3          32.5100    23.2150    46.2120 o          1 MOL       0.000000
     22 O4          32.5740    24.3140    48.3860 oh         1 MOL       0.000000
     23 N5          25.6190    25.9120    39.2860 nh         1 MOL       0.000000
     24 H2          26.4520    26.3570    38.8750 hn         1 MOL       0.000000
     25 H3          24.9670    25.3880    38.6860 hn         1 MOL       0.000000
     26 H4          26.3420    25.9150    46.0620 h5         1 MOL       0.000000
     27 H5          28.2630    24.8780    45.0970 h1         1 MOL       0.000000
     28 H6          28.3110    24.5270    43.3740 h1         1 MOL       0.000000
     29 H7          28.6200    27.2730    43.4610 hc         1 MOL       0.000000
     30 H8          29.9120    26.1130    43.2410 hc         1 MOL       0.000000
     31 H9          29.0740    27.5380    45.7380 hc         1 MOL       0.000000
     32 H10         30.6870    27.3300    45.0590 hc         1 MOL       0.000000
     33 H11         29.6120    24.7510    45.7010 hc         1 MOL       0.000000
     34 H12         29.4840    25.8020    47.1080 hc         1 MOL       0.000000
     35 H13         29.9310    23.3070    46.7150 ho         1 MOL       0.000000
     36 H14         33.4130    24.7380    48.1490 ho         1 MOL       0.000000
@<TRIPOS>BOND
     1     1    12 1   
     2     1     2 1   
     3     2    26 1   
     4     3     2 2   
     5     4     3 1   
     6     5     6 2   
     7     5     4 1   
     8     7     5 1   
     9     8     7 1   
    10     9     7 1   
    11     9    10 2   
    12    10    11 1   
    13    11     4 2   
    14    11     1 1   
    15    12    27 1   
    16    12    28 1   
    17    13    12 1   
    18    13    14 1   
    19    13    29 1   
    20    13    30 1   
    21    14    15 1   
    22    14    31 1   
    23    14    32 1   
    24    15    16 1   
    25    15    33 1   
    26    15    34 1   
    27    16    19 1   
    28    16    17 1   
    29    18    16 1   
    30    19    20 1   
    31    19    22 1   
    32    20    35 1   
    33    21    19 2   
    34    22    36 1   
    35    23     9 1   
    36    24    23 1   
    37    25    23 1   
@<TRIPOS>SUBSTRUCTURE
     1 MOL         1 TEMP              0 ****  ****    0 ROOT
