@<TRIPOS>MOLECULE
MOL
   36    37     1     0     0
SMALL
No Charge or Current Charge


@<TRIPOS>ATOM
      1 N1          32.1680    24.8620    46.8920 na         1 MOL       0.000000
      2 C1          32.2980    23.9490    47.9210 cc         1 MOL       0.000000
      3 N2          33.3370    24.2310    48.6630 nd         1 MOL       0.000000
      4 C2          33.9290    25.3510    48.1330 cd         1 MOL       0.000000
      5 C3          35.1010    26.0960    48.5440 c          1 MOL       0.000000
      6 O1          35.8390    25.8510    49.5150 o          1 MOL       0.000000
      7 N3          35.3810    27.2170    47.7050 n          1 MOL       0.000000
      8 H1          36.2000    27.8000    47.9320 hn         1 MOL       0.000000
      9 C4          34.6020    27.5760    46.5810 cd         1 MOL       0.000000
     10 N4          33.4830    26.8620    46.1930 nc         1 MOL       0.000000
     11 C5          33.2130    25.7690    47.0130 cc         1 MOL       0.000000
     12 C6          31.0930    24.8140    46.0090 c3         1 MOL       0.000000
     13 C7          30.0190    25.8700    46.3780 c3         1 MOL       0.000000
     14 C8          29.9810    26.9770    45.2980 c3         1 MOL       0.000000
     15 C9          29.6040    26.3990    43.8970 c3         1 MOL       0.000000
     16 C10         28.4850    27.2390    43.2270 c3         1 MOL       0.000000
     17 F1          28.8750    27.5740    41.9850 f          1 MOL       0.000000
     18 F2          28.2900    28.3640    43.9320 f          1 MOL       0.000000
     19 P1          27.1830    26.4530    43.1760 p5         1 MOL       0.000000
     20 O2          26.3310    26.9200    42.0450 o          1 MOL       0.000000
     21 O3          27.4870    25.0040    43.0080 oh         1 MOL       0.000000
     22 O4          26.4380    26.6460    44.4710 oh         1 MOL       0.000000
     23 N5          34.9770    28.6750    45.8580 nh         1 MOL       0.000000
     24 H2          35.1230    28.5980    44.8410 hn         1 MOL       0.000000
     25 H3          35.1150    29.5800    46.3300 hn         1 MOL       0.000000
     26 H4          31.6620    23.1530    48.0820 h5         1 MOL       0.000000
     27 H5          31.4460    25.0070    45.0180 h1         1 MOL       0.000000
     28 H6          30.6480    23.8430    46.0680 h1         1 MOL       0.000000
     29 H7          29.0610    25.3970    46.4360 hc         1 MOL       0.000000
     30 H8          30.2630    26.3070    47.3240 hc         1 MOL       0.000000
     31 H9          29.2540    27.7110    45.5780 hc         1 MOL       0.000000
     32 H10         30.9560    27.4120    45.2300 hc         1 MOL       0.000000
     33 H11         30.4710    26.4090    43.2700 hc         1 MOL       0.000000
     34 H12         29.2450    25.3990    44.0280 hc         1 MOL       0.000000
     35 H13         27.9670    24.8690    42.1760 ho         1 MOL       0.000000
     36 H14         25.6070    26.1470    44.4430 ho         1 MOL       0.000000
@<TRIPOS>BOND
     1     1    11 1   
     2     1     2 1   
     3     2     3 2   
     4     2    26 1   
     5     4     5 1   
     6     4     3 1   
     7     5     6 2   
     8     7     8 1   
     9     7     5 1   
    10     9     7 1   
    11    10     9 2   
    12    10    11 1   
    13    11     4 2   
    14    12    13 1   
    15    12     1 1   
    16    12    27 1   
    17    12    28 1   
    18    13    29 1   
    19    13    30 1   
    20    14    13 1   
    21    14    31 1   
    22    14    32 1   
    23    15    14 1   
    24    15    33 1   
    25    15    34 1   
    26    16    15 1   
    27    16    18 1   
    28    17    16 1   
    29    19    16 1   
    30    19    22 1   
    31    20    19 2   
    32    21    19 1   
    33    21    35 1   
    34    22    36 1   
    35    23    25 1   
    36    23     9 1   
    37    24    23 1   
@<TRIPOS>SUBSTRUCTURE
     1 MOL         1 TEMP              0 ****  ****    0 ROOT
