@<TRIPOS>MOLECULE
MOL
   36    37     1     0     0
SMALL
No Charge or Current Charge


@<TRIPOS>ATOM
      1 N1          30.6070    26.0180    45.9370 na         1 MOL       0.000000
      2 C1          30.0630    24.8110    46.3340 cc         1 MOL       0.000000
      3 N2          30.8730    24.1790    47.1410 nd         1 MOL       0.000000
      4 C2          31.9900    24.9610    47.2990 cd         1 MOL       0.000000
      5 C3          33.1970    24.7570    48.0740 c          1 MOL       0.000000
      6 O1          33.4680    23.7770    48.7900 o          1 MOL       0.000000
      7 N3          34.1300    25.8330    47.9600 n          1 MOL       0.000000
      8 H1          35.0140    25.7640    48.4830 hn         1 MOL       0.000000
      9 C4          33.9130    26.9870    47.1730 cd         1 MOL       0.000000
     10 N4          32.7580    27.1770    46.4350 nc         1 MOL       0.000000
     11 C5          31.8510    26.1270    46.5480 cc         1 MOL       0.000000
     12 C6          29.9010    26.9060    45.1320 c3         1 MOL       0.000000
     13 C7          28.5930    26.2610    44.6010 c3         1 MOL       0.000000
     14 C8          28.2080    26.8990    43.2460 c3         1 MOL       0.000000
     15 C9          26.6590    26.9430    43.0510 c3         1 MOL       0.000000
     16 C10         26.1170    25.5760    42.5560 c3         1 MOL       0.000000
     17 F1          25.6970    24.8640    43.6150 f          1 MOL       0.000000
     18 F2          27.1060    24.8990    41.9510 f          1 MOL       0.000000
     19 P1          24.9780    25.7770    41.5690 p5         1 MOL       0.000000
     20 O2          23.9530    26.7030    42.1310 oh         1 MOL       0.000000
     21 O3          25.5190    26.3420    40.2990 o          1 MOL       0.000000
     22 O4          24.3370    24.4470    41.2750 oh         1 MOL       0.000000
     23 N5          34.8870    27.9470    47.1490 nh         1 MOL       0.000000
     24 H2          35.8760    27.6740    47.0580 hn         1 MOL       0.000000
     25 H3          34.6320    28.9420    47.2220 hn         1 MOL       0.000000
     26 H4          29.1410    24.4570    46.0330 h5         1 MOL       0.000000
     27 H5          29.6540    27.7760    45.7040 h1         1 MOL       0.000000
     28 H6          30.5150    27.1670    44.2950 h1         1 MOL       0.000000
     29 H7          28.7430    25.2100    44.4690 hc         1 MOL       0.000000
     30 H8          27.8050    26.4260    45.3060 hc         1 MOL       0.000000
     31 H9          28.5910    27.8980    43.2110 hc         1 MOL       0.000000
     32 H10         28.6270    26.3020    42.4640 hc         1 MOL       0.000000
     33 H11         26.1960    27.1840    43.9850 hc         1 MOL       0.000000
     34 H12         26.4310    27.6850    42.3140 hc         1 MOL       0.000000
     35 H13         23.2350    26.8190    41.4890 ho         1 MOL       0.000000
     36 H14         23.6100    24.5710    40.6450 ho         1 MOL       0.000000
@<TRIPOS>BOND
     1     1     2 1   
     2     1    11 1   
     3     2     3 2   
     4     2    26 1   
     5     3     4 1   
     6     4     5 1   
     7     5     6 2   
     8     7     5 1   
     9     7     8 1   
    10     9     7 1   
    11    10    11 1   
    12    10     9 2   
    13    11     4 2   
    14    12     1 1   
    15    12    27 1   
    16    12    28 1   
    17    13    12 1   
    18    13    29 1   
    19    13    30 1   
    20    14    13 1   
    21    14    31 1   
    22    14    32 1   
    23    15    14 1   
    24    15    33 1   
    25    15    34 1   
    26    16    15 1   
    27    16    17 1   
    28    18    16 1   
    29    19    20 1   
    30    19    16 1   
    31    20    35 1   
    32    21    19 2   
    33    22    19 1   
    34    22    36 1   
    35    23     9 1   
    36    23    25 1   
    37    24    23 1   
@<TRIPOS>SUBSTRUCTURE
     1 MOL         1 TEMP              0 ****  ****    0 ROOT
