@<TRIPOS>MOLECULE
MOL
   33    31     1     0     0
SMALL
No Charge or Current Charge


@<TRIPOS>ATOM
      1 N1          -9.9040    51.8100   125.9240 n4         1 MOL       0.000000
      2 H1          -9.1790    52.4620   126.1600 hn         1 MOL       0.000000
      3 H2         -10.7930    52.0830   126.3750 hn         1 MOL       0.000000
      4 C1          -9.5200    50.3660   126.2800 c3         1 MOL       0.000000
      5 C2         -10.3270    51.8410   124.5340 c1         1 MOL       0.000000
      6 H3          -9.9950    52.8030   124.0990 hx         1 MOL       0.000000
      7 C3          -9.6660    50.6530   123.8810 c3         1 MOL       0.000000
      8 C4          -9.8590    49.5930   124.9220 c3         1 MOL       0.000000
      9 C5         -11.8940    51.9030   124.3600 c          1 MOL       0.000000
     10 O1         -12.5310    52.2420   125.3820 o          1 MOL       0.000000
     11 O2         -12.3480    51.6420   123.2040 oh         1 MOL       0.000000
     12 C6          -8.1120    50.8100   123.4980 c3         1 MOL       0.000000
     13 C7          -7.7550    52.2630   123.1600 c          1 MOL       0.000000
     14 O3          -8.0200    53.0790   124.0540 oh         1 MOL       0.000000
     15 O4          -7.2390    52.5300   122.0510 o          1 MOL       0.000000
     16 C8          -9.2030    48.1750   124.6710 c2         1 MOL       0.000000
     17 C9          -9.7610    47.4030   123.8020 c2         1 MOL       0.000000
     18 C10         -7.9900    47.8100   125.4400 c3         1 MOL       0.000000
     19 H4          -8.4810    50.2880   126.5240 hx         1 MOL       0.000000
     20 H5         -10.0310    49.9800   127.1370 hx         1 MOL       0.000000
     21 H6         -10.2170    50.3860   123.0040 hc         1 MOL       0.000000
     22 H7         -10.0150    51.5840   124.2750 hc         1 MOL       0.000000
     23 H8         -10.8560    49.2040   124.9270 hc         1 MOL       0.000000
     24 H9         -10.8710    51.8260   124.4710 h5         1 MOL       0.000000
     25 H10        -11.7620    51.3970   122.5150 ho         1 MOL       0.000000
     26 H11         -7.5160    50.4910   124.3280 hc         1 MOL       0.000000
     27 H12         -7.9190    50.2090   122.6340 hc         1 MOL       0.000000
     28 H13         -8.4080    52.7860   124.8550 ho         1 MOL       0.000000
     29 H14        -10.6060    47.7170   123.2990 ha         1 MOL       0.000000
     30 H15         -9.3630    46.4710   123.6090 ha         1 MOL       0.000000
     31 H16         -7.6710    46.8280   125.1580 hc         1 MOL       0.000000
     32 H17         -8.2130    47.8260   126.4860 hc         1 MOL       0.000000
     33 H18         -7.2100    48.5120   125.2310 hc         1 MOL       0.000000
@<TRIPOS>BOND
     1     1     2 1   
     2     1     4 1   
     3     1     3 1   
     4     4    19 1   
     5     4    20 1   
     6     5     1 1   
     7     6     5 1   
     8     7     8 1   
     9     7    21 1   
    10     7    22 1   
    11     8     4 1   
    12     8    23 1   
    13     9    10 2   
    14     9    24 1   
    15    11     9 1   
    16    11    25 1   
    17    12     7 1   
    18    12    26 1   
    19    12    27 1   
    20    13    12 1   
    21    13    14 1   
    22    14    28 1   
    23    15    13 2   
    24    16     8 1   
    25    16    18 1   
    26    17    16 2   
    27    17    29 1   
    28    17    30 1   
    29    18    31 1   
    30    18    32 1   
    31    18    33 1   
@<TRIPOS>SUBSTRUCTURE
     1 MOL         1 TEMP              0 ****  ****    0 ROOT
