@<TRIPOS>MOLECULE
MOL
   33    31     1     0     0
SMALL
No Charge or Current Charge


@<TRIPOS>ATOM
      1 N1         -10.6660    49.8320   126.2930 n4         1 MOL       0.000000
      2 H1         -11.6130    50.0200   126.5650 hn         1 MOL       0.000000
      3 H2         -10.2650    49.0830   126.8830 hn         1 MOL       0.000000
      4 C1          -9.7930    51.0960   126.3280 c3         1 MOL       0.000000
      5 C2         -10.5160    49.2090   124.9890 c1         1 MOL       0.000000
      6 H3         -11.4920    48.7700   124.7070 hx         1 MOL       0.000000
      7 C3         -10.0900    50.3150   124.0560 c3         1 MOL       0.000000
      8 C4          -9.0860    51.0440   124.8960 c3         1 MOL       0.000000
      9 C5          -9.5610    47.9530   125.0030 c          1 MOL       0.000000
     10 O1          -8.9440    47.7650   126.0750 o          1 MOL       0.000000
     11 O2          -9.5390    47.2440   123.9510 oh         1 MOL       0.000000
     12 C6         -11.2420    51.3110   123.5400 c3         1 MOL       0.000000
     13 C7         -12.5680    50.5730   123.3110 c          1 MOL       0.000000
     14 O3         -12.8040    49.6730   124.1290 oh         1 MOL       0.000000
     15 O4         -13.3030    50.9070   122.3550 o          1 MOL       0.000000
     16 C8          -8.4530    52.3730   124.3130 c2         1 MOL       0.000000
     17 C9          -8.4970    53.4300   125.0500 c2         1 MOL       0.000000
     18 C10         -7.8430    52.3340   122.9630 c3         1 MOL       0.000000
     19 H4         -10.3890    51.9780   126.4370 hx         1 MOL       0.000000
     20 H5          -9.1070    51.1270   127.1490 hx         1 MOL       0.000000
     21 H6          -9.5940    49.8860   123.2110 hc         1 MOL       0.000000
     22 H7         -10.5430    49.5510   124.6530 hc         1 MOL       0.000000
     23 H8          -8.1460    50.5350   124.9390 hc         1 MOL       0.000000
     24 H9         -10.1640    48.7900   124.9700 h5         1 MOL       0.000000
     25 H10        -10.0510    47.4940   123.2070 ho         1 MOL       0.000000
     26 H11        -11.3930    52.0760   124.2720 hc         1 MOL       0.000000
     27 H12        -10.9280    51.7300   122.6070 hc         1 MOL       0.000000
     28 H13        -12.1930    49.4920   124.8160 ho         1 MOL       0.000000
     29 H14         -8.0950    54.3160   124.7060 ha         1 MOL       0.000000
     30 H15         -8.9340    53.3900   125.9840 ha         1 MOL       0.000000
     31 H16         -7.9330    51.3470   122.5590 hc         1 MOL       0.000000
     32 H17         -6.8090    52.5990   123.0310 hc         1 MOL       0.000000
     33 H18         -8.3470    53.0280   122.3240 hc         1 MOL       0.000000
@<TRIPOS>BOND
     1     1     4 1   
     2     1     2 1   
     3     1     3 1   
     4     4    19 1   
     5     4    20 1   
     6     5     1 1   
     7     6     5 1   
     8     7     8 1   
     9     7    21 1   
    10     7    22 1   
    11     8     4 1   
    12     8    23 1   
    13     9    10 2   
    14     9    24 1   
    15    11     9 1   
    16    11    25 1   
    17    12     7 1   
    18    12    26 1   
    19    12    27 1   
    20    13    12 1   
    21    13    14 1   
    22    14    28 1   
    23    15    13 2   
    24    16     8 1   
    25    16    17 2   
    26    17    29 1   
    27    17    30 1   
    28    18    16 1   
    29    18    31 1   
    30    18    32 1   
    31    18    33 1   
@<TRIPOS>SUBSTRUCTURE
     1 MOL         1 TEMP              0 ****  ****    0 ROOT
