@<TRIPOS>MOLECULE
MOL
   33    31     1     0     0
SMALL
No Charge or Current Charge


@<TRIPOS>ATOM
      1 N1          -9.0690    48.0800   126.3340 n4         1 MOL       0.000000
      2 H1          -9.4470    47.1630   126.4840 hn         1 MOL       0.000000
      3 H2          -8.1090    48.1390   126.7140 hn         1 MOL       0.000000
      4 C1          -9.9690    49.1780   126.9220 c3         1 MOL       0.000000
      5 C2          -8.7930    48.4100   124.9460 c1         1 MOL       0.000000
      6 H3          -8.7470    47.4630   124.3750 hx         1 MOL       0.000000
      7 C3          -9.9310    49.2960   124.5050 c3         1 MOL       0.000000
      8 C4         -10.0900    50.1940   125.6940 c3         1 MOL       0.000000
      9 C5          -7.3560    49.0200   124.7240 c          1 MOL       0.000000
     10 O1          -6.4130    48.3550   125.2070 o          1 MOL       0.000000
     11 O2          -7.2920    50.0950   124.0530 oh         1 MOL       0.000000
     12 C6         -11.3180    48.5670   124.1430 c3         1 MOL       0.000000
     13 C7         -11.1090    47.0830   123.8110 c          1 MOL       0.000000
     14 O3          -9.9230    46.7430   123.7040 oh         1 MOL       0.000000
     15 O4         -12.1030    46.3360   123.6750 o          1 MOL       0.000000
     16 C8         -11.2800    51.2370   125.6850 c2         1 MOL       0.000000
     17 C9         -11.0040    52.4580   125.3720 c2         1 MOL       0.000000
     18 C10        -12.6400    50.7620   126.0320 c3         1 MOL       0.000000
     19 H4         -10.9260    48.7890   127.2020 hx         1 MOL       0.000000
     20 H5          -9.5830    49.6220   127.8160 hx         1 MOL       0.000000
     21 H6          -9.6130    49.8790   123.6660 hc         1 MOL       0.000000
     22 H7          -9.2030    48.5470   124.7390 hc         1 MOL       0.000000
     23 H8          -9.3380    50.9540   125.7350 hc         1 MOL       0.000000
     24 H9          -8.3040    48.6480   124.8920 h5         1 MOL       0.000000
     25 H10         -8.0770    50.5020   123.7430 ho         1 MOL       0.000000
     26 H11        -11.9800    48.6450   124.9800 hc         1 MOL       0.000000
     27 H12        -11.7320    49.0470   123.2810 hc         1 MOL       0.000000
     28 H13         -9.2420    47.3750   123.8230 ho         1 MOL       0.000000
     29 H14        -10.0340    52.7250   125.1400 ha         1 MOL       0.000000
     30 H15        -11.7530    53.1680   125.3530 ha         1 MOL       0.000000
     31 H16        -13.3280    51.5800   125.9810 hc         1 MOL       0.000000
     32 H17        -12.6360    50.3620   127.0240 hc         1 MOL       0.000000
     33 H18        -12.9390    50.0010   125.3420 hc         1 MOL       0.000000
@<TRIPOS>BOND
     1     1     2 1   
     2     1     3 1   
     3     1     4 1   
     4     4    19 1   
     5     4    20 1   
     6     5     1 1   
     7     6     5 1   
     8     7     8 1   
     9     7    21 1   
    10     7    22 1   
    11     8     4 1   
    12     8    23 1   
    13     9    10 2   
    14     9    24 1   
    15    11     9 1   
    16    11    25 1   
    17    12     7 1   
    18    12    26 1   
    19    12    27 1   
    20    13    12 1   
    21    14    13 1   
    22    14    28 1   
    23    15    13 2   
    24    16     8 1   
    25    16    18 1   
    26    17    16 2   
    27    17    29 1   
    28    17    30 1   
    29    18    31 1   
    30    18    32 1   
    31    18    33 1   
@<TRIPOS>SUBSTRUCTURE
     1 MOL         1 TEMP              0 ****  ****    0 ROOT
