@<TRIPOS>MOLECULE
MOL
   19    19     1     0     0
SMALL
No Charge or Current Charge


@<TRIPOS>ATOM
      1 C1          18.2840     0.1510     2.9480 cc         1 MOL       0.000000
      2 C2          20.4350     0.8270     2.7460 cc         1 MOL       0.000000
      3 N1          20.3780    -0.4070     3.1250 nd         1 MOL       0.000000
      4 N2          19.0820    -0.8250     3.2480 nd         1 MOL       0.000000
      5 S1          18.9770     1.6360     2.4960 ss         1 MOL       0.000000
      6 S2          16.5230    -0.0420     3.0020 sy         1 MOL       0.000000
      7 O1          15.9240     1.2380     2.6210 o          1 MOL       0.000000
      8 O2          16.1350    -0.3750     4.3710 o          1 MOL       0.000000
      9 N3          16.2200    -1.1590     1.9120 n3         1 MOL       0.000000
     10 H1          15.3860    -1.0810     1.3130 hn         1 MOL       0.000000
     11 N4          21.7140     1.2810     2.6040 n          1 MOL       0.000000
     12 C3          22.5150     1.9160     3.5440 c          1 MOL       0.000000
     13 C4          21.8820     2.2020     4.8930 c3         1 MOL       0.000000
     14 O3          23.6820     2.2760     3.3710 o          1 MOL       0.000000
     15 H2          22.1400     1.1340     1.6790 hn         1 MOL       0.000000
     16 H3          17.0280    -1.1900     1.2900 hn         1 MOL       0.000000
     17 H4          20.8760     1.8370     4.9000 hc         1 MOL       0.000000
     18 H5          21.8800     3.2570     5.0690 hc         1 MOL       0.000000
     19 H6          22.4440     1.7130     5.6610 hc         1 MOL       0.000000
@<TRIPOS>BOND
     1     1     6 1   
     2     1     4 2   
     3     2     3 2   
     4     3     4 1   
     5     5     2 1   
     6     5     1 1   
     7     6     8 2   
     8     7     6 2   
     9     9     6 1   
    10     9    16 1   
    11    10     9 1   
    12    11     2 1   
    13    11    12 1   
    14    12    13 1   
    15    13    17 1   
    16    13    18 1   
    17    13    19 1   
    18    14    12 2   
    19    15    11 1   
@<TRIPOS>SUBSTRUCTURE
     1 MOL         1 TEMP              0 ****  ****    0 ROOT
