@<TRIPOS>MOLECULE
MOL
   19    19     1     0     0
SMALL
No Charge or Current Charge


@<TRIPOS>ATOM
      1 C1          23.2100     4.2350     1.3890 cc         1 MOL       0.000000
      2 C2          21.8380     4.7090    -0.3470 cd         1 MOL       0.000000
      3 N1          23.0740     4.8750    -0.6850 nc         1 MOL       0.000000
      4 N2          23.9120     4.5890     0.3570 nc         1 MOL       0.000000
      5 S1          21.5180     4.2060     1.2300 ss         1 MOL       0.000000
      6 S2          23.9790     3.7930     2.9230 sy         1 MOL       0.000000
      7 O1          23.1520     4.3300     4.0050 o          1 MOL       0.000000
      8 O2          25.3050     4.4070     2.9720 o          1 MOL       0.000000
      9 N3          23.9590     2.2030     2.9260 n3         1 MOL       0.000000
     10 H1          23.4700     1.6930     2.1770 hn         1 MOL       0.000000
     11 N4          20.9680     4.9790    -1.3630 n          1 MOL       0.000000
     12 C3          20.2690     4.0850    -2.1630 c          1 MOL       0.000000
     13 C4          20.5380     2.6100    -1.9300 c3         1 MOL       0.000000
     14 O3          19.4650     4.3860    -3.0490 o          1 MOL       0.000000
     15 H2          20.8100     5.9770    -1.5630 hn         1 MOL       0.000000
     16 H3          24.9310     1.8960     2.9050 hn         1 MOL       0.000000
     17 H4          19.9430     2.0280    -2.6030 hc         1 MOL       0.000000
     18 H5          20.2860     2.3570    -0.9210 hc         1 MOL       0.000000
     19 H6          21.5740     2.4050    -2.1010 hc         1 MOL       0.000000
@<TRIPOS>BOND
     1     1     6 1   
     2     2     5 1   
     3     3     2 2   
     4     3     4 1   
     5     4     1 2   
     6     5     1 1   
     7     6     9 1   
     8     6     8 2   
     9     6     7 2   
    10     9    16 1   
    11    10     9 1   
    12    11     2 1   
    13    12    13 1   
    14    12    11 1   
    15    13    17 1   
    16    13    18 1   
    17    13    19 1   
    18    14    12 2   
    19    15    11 1   
@<TRIPOS>SUBSTRUCTURE
     1 MOL         1 TEMP              0 ****  ****    0 ROOT
