@<TRIPOS>MOLECULE
MOL
   19    19     1     0     0
SMALL
No Charge or Current Charge


@<TRIPOS>ATOM
      1 C1          17.2800     0.8990     2.6690 cc         1 MOL       0.000000
      2 C2          17.3040     3.1310     2.2980 cd         1 MOL       0.000000
      3 N1          18.4720     2.6220     2.0860 nc         1 MOL       0.000000
      4 N2          18.4680     1.2720     2.3060 nc         1 MOL       0.000000
      5 S1          16.0710     2.0880     2.7840 ss         1 MOL       0.000000
      6 S2          16.9150    -0.7960     3.0380 sy         1 MOL       0.000000
      7 O1          16.0190    -0.8160     4.1960 o          1 MOL       0.000000
      8 O2          18.1630    -1.4770     3.3750 o          1 MOL       0.000000
      9 N3          16.1740    -1.3280     1.7350 n3         1 MOL       0.000000
     10 H1          15.3780    -1.9750     1.8240 hn         1 MOL       0.000000
     11 N4          17.2640     4.4780     2.0830 n          1 MOL       0.000000
     12 C3          17.4390     5.5060     3.0000 c          1 MOL       0.000000
     13 C4          17.6450     5.0980     4.4470 c3         1 MOL       0.000000
     14 O3          17.4280     6.7120     2.7420 o          1 MOL       0.000000
     15 H2          17.0800     4.7700     1.1130 hn         1 MOL       0.000000
     16 H3          15.8320    -0.5070     1.2350 hn         1 MOL       0.000000
     17 H4          17.6320     4.0310     4.5220 hc         1 MOL       0.000000
     18 H5          16.8600     5.5070     5.0480 hc         1 MOL       0.000000
     19 H6          18.5880     5.4680     4.7910 hc         1 MOL       0.000000
@<TRIPOS>BOND
     1     1     5 1   
     2     1     6 1   
     3     2     5 1   
     4     3     2 2   
     5     3     4 1   
     6     4     1 2   
     7     6     8 2   
     8     6     7 2   
     9     9    10 1   
    10     9     6 1   
    11     9    16 1   
    12    11     2 1   
    13    11    12 1   
    14    12    13 1   
    15    13    17 1   
    16    13    18 1   
    17    13    19 1   
    18    14    12 2   
    19    15    11 1   
@<TRIPOS>SUBSTRUCTURE
     1 MOL         1 TEMP              0 ****  ****    0 ROOT
