MODEL 1
REMARK VINA RESULT:      -5.3      0.000      0.000
REMARK  3 active torsions:
REMARK  status: ('A' for Active; 'I' for Inactive)
REMARK    1  A    between atoms: C_1  and  S_14 
REMARK    2  A    between atoms: C1_2  and  N3_9 
REMARK       I    between atoms: C2_3  and  N3_9 
REMARK    3  A    between atoms: N_5  and  S_14 
ROOT
ATOM      1  C   UNL d          23.210   4.235   1.389  0.00  0.00     0.239 A 
ATOM      2  C1  UNL d          21.838   4.709  -0.347  0.00  0.00     0.197 A 
ATOM      3  N1  UNL d          23.074   4.875  -0.685  0.00  0.00    -0.122 NA
ATOM      4  N2  UNL d          23.912   4.589   0.357  0.00  0.00    -0.126 NA
ATOM      5  S1  UNL d          21.518   4.206   1.230  0.00  0.00    -0.015 SA
ENDROOT
BRANCH   1   6
ATOM      6  S   UNL d          23.979   3.793   2.923  0.00  0.00     0.302 S 
ATOM      7  O   UNL d          23.152   4.330   4.005  0.00  0.00    -0.197 OA
ATOM      8  O1  UNL d          25.305   4.407   2.972  0.00  0.00    -0.197 OA
BRANCH   6   9
ATOM      9  N   UNL d          23.959   2.203   2.926  0.00  0.00    -0.211 NA
ATOM     10  H3  UNL d          23.470   1.693   2.177  0.00  0.00     0.201 HD
ENDBRANCH   6   9
ENDBRANCH   1   6
BRANCH   2  11
ATOM     11  N3  UNL d          20.968   4.979  -1.363  0.00  0.00    -0.305 N 
ATOM     12  C2  UNL d          20.269   4.085  -2.163  0.00  0.00     0.219 C 
ATOM     13  C3  UNL d          20.538   2.610  -1.930  0.00  0.00     0.117 C 
ATOM     14  O2  UNL d          19.465   4.386  -3.049  0.00  0.00    -0.274 OA
ATOM     15  H4  UNL d          20.810   5.977  -1.563  0.00  0.00     0.171 HD
ENDBRANCH   2  11
TORSDOF 3
ENDMDL
MODEL 2
REMARK VINA RESULT:      -5.2      5.590      7.310
REMARK  3 active torsions:
REMARK  status: ('A' for Active; 'I' for Inactive)
REMARK    1  A    between atoms: C_1  and  S_14 
REMARK    2  A    between atoms: C1_2  and  N3_9 
REMARK       I    between atoms: C2_3  and  N3_9 
REMARK    3  A    between atoms: N_5  and  S_14 
ROOT
ATOM      1  C   UNL d          18.284   0.151   2.948  0.00  0.00     0.239 A 
ATOM      2  C1  UNL d          20.435   0.827   2.746  0.00  0.00     0.197 A 
ATOM      3  N1  UNL d          20.378  -0.407   3.125  0.00  0.00    -0.122 NA
ATOM      4  N2  UNL d          19.082  -0.825   3.248  0.00  0.00    -0.126 NA
ATOM      5  S1  UNL d          18.977   1.636   2.496  0.00  0.00    -0.015 SA
ENDROOT
BRANCH   1   6
ATOM      6  S   UNL d          16.523  -0.042   3.002  0.00  0.00     0.302 S 
ATOM      7  O   UNL d          15.924   1.238   2.621  0.00  0.00    -0.197 OA
ATOM      8  O1  UNL d          16.135  -0.375   4.371  0.00  0.00    -0.197 OA
BRANCH   6   9
ATOM      9  N   UNL d          16.220  -1.159   1.912  0.00  0.00    -0.211 NA
ATOM     10  H3  UNL d          15.386  -1.081   1.313  0.00  0.00     0.201 HD
ENDBRANCH   6   9
ENDBRANCH   1   6
BRANCH   2  11
ATOM     11  N3  UNL d          21.714   1.281   2.604  0.00  0.00    -0.305 N 
ATOM     12  C2  UNL d          22.515   1.916   3.544  0.00  0.00     0.219 C 
ATOM     13  C3  UNL d          21.882   2.202   4.893  0.00  0.00     0.117 C 
ATOM     14  O2  UNL d          23.682   2.276   3.371  0.00  0.00    -0.274 OA
ATOM     15  H4  UNL d          22.140   1.134   1.679  0.00  0.00     0.171 HD
ENDBRANCH   2  11
TORSDOF 3
ENDMDL
MODEL 3
REMARK VINA RESULT:      -5.1      6.510      7.138
REMARK  3 active torsions:
REMARK  status: ('A' for Active; 'I' for Inactive)
REMARK    1  A    between atoms: C_1  and  S_14 
REMARK    2  A    between atoms: C1_2  and  N3_9 
REMARK       I    between atoms: C2_3  and  N3_9 
REMARK    3  A    between atoms: N_5  and  S_14 
ROOT
ATOM      1  C   UNL d          17.280   0.899   2.669  0.00  0.00     0.239 A 
ATOM      2  C1  UNL d          17.304   3.131   2.298  0.00  0.00     0.197 A 
ATOM      3  N1  UNL d          18.472   2.622   2.086  0.00  0.00    -0.122 NA
ATOM      4  N2  UNL d          18.468   1.272   2.306  0.00  0.00    -0.126 NA
ATOM      5  S1  UNL d          16.071   2.088   2.784  0.00  0.00    -0.015 SA
ENDROOT
BRANCH   1   6
ATOM      6  S   UNL d          16.915  -0.796   3.038  0.00  0.00     0.302 S 
ATOM      7  O   UNL d          16.019  -0.816   4.196  0.00  0.00    -0.197 OA
ATOM      8  O1  UNL d          18.163  -1.477   3.375  0.00  0.00    -0.197 OA
BRANCH   6   9
ATOM      9  N   UNL d          16.174  -1.328   1.735  0.00  0.00    -0.211 NA
ATOM     10  H3  UNL d          15.378  -1.975   1.824  0.00  0.00     0.201 HD
ENDBRANCH   6   9
ENDBRANCH   1   6
BRANCH   2  11
ATOM     11  N3  UNL d          17.264   4.478   2.083  0.00  0.00    -0.305 N 
ATOM     12  C2  UNL d          17.439   5.506   3.000  0.00  0.00     0.219 C 
ATOM     13  C3  UNL d          17.645   5.098   4.447  0.00  0.00     0.117 C 
ATOM     14  O2  UNL d          17.428   6.712   2.742  0.00  0.00    -0.274 OA
ATOM     15  H4  UNL d          17.080   4.770   1.113  0.00  0.00     0.171 HD
ENDBRANCH   2  11
TORSDOF 3
ENDMDL
