@<TRIPOS>MOLECULE
MOL
   35    37     1     0     0
SMALL
No Charge or Current Charge


@<TRIPOS>ATOM
      1 C1          -1.5410    -3.3870    31.2360 ca         1 MOL       0.000000
      2 C2          -2.5330    -2.5490    30.5840 ca         1 MOL       0.000000
      3 C3          -2.0590    -1.3820    29.8840 ca         1 MOL       0.000000
      4 C4          -0.6870    -1.0600    29.8350 ca         1 MOL       0.000000
      5 C5           0.2720    -1.8890    30.4820 ca         1 MOL       0.000000
      6 F1           1.6080    -1.6050    30.4530 f          1 MOL       0.000000
      7 C6          -0.1650    -3.0450    31.1770 ca         1 MOL       0.000000
      8 N1          -1.8480    -4.4990    31.9100 nh         1 MOL       0.000000
      9 H1          -1.1030    -5.0540    32.3540 hn         1 MOL       0.000000
     10 H2          -2.8300    -4.8000    31.9860 hn         1 MOL       0.000000
     11 C7          -4.0630    -2.7500    30.5290 c          1 MOL       0.000000
     12 N2          -4.9110    -1.5940    30.4000 n          1 MOL       0.000000
     13 C8          -6.2730    -1.5490    30.3150 cc         1 MOL       0.000000
     14 H3          -4.4280    -0.6850    30.3680 hn         1 MOL       0.000000
     15 S1          -7.3130    -2.9120    30.2570 ss         1 MOL       0.000000
     16 N3          -6.9180    -0.3760    30.2580 nd         1 MOL       0.000000
     17 C9          -8.6850    -1.8670    30.1510 cc         1 MOL       0.000000
     18 C10         -8.2740    -0.5660    30.1660 cd         1 MOL       0.000000
     19 O1          -4.5380    -3.8930    30.5830 o          1 MOL       0.000000
     20 S2          -0.2350     0.3910    28.9380 ss         1 MOL       0.000000
     21 C11          0.9950     0.0870    27.7200 cc         1 MOL       0.000000
     22 N4           0.6140     0.0730    26.3840 na         1 MOL       0.000000
     23 C12          1.8480    -0.1870    25.8050 cc         1 MOL       0.000000
     24 C13         -0.7140     0.2750    25.7610 c3         1 MOL       0.000000
     25 C14          2.8370    -0.3070    26.7860 cd         1 MOL       0.000000
     26 N5           2.3110    -0.1320    28.0580 nd         1 MOL       0.000000
     27 H4          -2.7390    -0.7680    29.4080 ha         1 MOL       0.000000
     28 H5           0.5290    -3.6470    31.6470 ha         1 MOL       0.000000
     29 H6          -9.6660    -2.1790    30.0860 h4         1 MOL       0.000000
     30 H7          -8.9380     0.2220    30.1120 h4         1 MOL       0.000000
     31 H8           2.0130    -0.2790    24.7900 h4         1 MOL       0.000000
     32 H9          -0.6250     0.1930    24.6980 h1         1 MOL       0.000000
     33 H10         -1.0830     1.2470    26.0140 h1         1 MOL       0.000000
     34 H11         -1.3940    -0.4690    26.1210 h1         1 MOL       0.000000
     35 H12          3.8310    -0.5010    26.5890 h4         1 MOL       0.000000
@<TRIPOS>BOND
     1     1     8 1   
     2     2     1 ar  
     3     3     2 ar  
     4     3    27 1   
     5     4     3 ar  
     6     4     5 ar  
     7     5     7 ar  
     8     6     5 1   
     9     7     1 ar  
    10     7    28 1   
    11     8    10 1   
    12     8     9 1   
    13    11    19 2   
    14    11     2 1   
    15    12    11 1   
    16    13    12 1   
    17    14    12 1   
    18    15    13 1   
    19    16    13 2   
    20    17    18 2   
    21    17    15 1   
    22    17    29 1   
    23    18    16 1   
    24    18    30 1   
    25    20     4 1   
    26    21    26 2   
    27    21    20 1   
    28    22    21 1   
    29    23    22 1   
    30    23    25 2   
    31    23    31 1   
    32    24    22 1   
    33    24    32 1   
    34    24    33 1   
    35    24    34 1   
    36    25    26 1   
    37    25    35 1   
@<TRIPOS>SUBSTRUCTURE
     1 MOL         1 TEMP              0 ****  ****    0 ROOT
