MODEL 1
REMARK VINA RESULT:      -7.6      0.000      0.000
REMARK  3 active torsions:
REMARK  status: ('A' for Active; 'I' for Inactive)
REMARK       I    between atoms: N1_6  and  C3_8 
REMARK    1  A    between atoms: C3_8  and  C5_11 
REMARK    2  A    between atoms: C7_13  and  S1_17 
REMARK    3  A    between atoms: S1_17  and  C10_19 
ROOT
ATOM      1  C4  UNL d           0.924  -2.946  31.314  0.00  0.00     0.044 A 
ATOM      2  C5  UNL d          -0.401  -2.482  30.940  0.00  0.00     0.060 A 
ATOM      3  C6  UNL d          -0.481  -1.380  30.014  0.00  0.00     0.041 A 
ATOM      4  C7  UNL d           0.679  -0.772  29.493  0.00  0.00     0.048 A 
ATOM      5  C8  UNL d           1.970  -1.235  29.873  0.00  0.00     0.135 A 
ATOM      6  F   UNL d           3.113  -0.666  29.386  0.00  0.00    -0.205 F 
ATOM      7  C9  UNL d           2.079  -2.319  30.780  0.00  0.00     0.073 A 
ATOM      8  N4  UNL d           1.135  -3.962  32.156  0.00  0.00    -0.398 N 
ATOM      9  H10 UNL d           2.097  -4.248  32.387  0.00  0.00     0.156 HD
ATOM     10  H11 UNL d           0.336  -4.459  32.574  0.00  0.00     0.156 HD
ENDROOT
BRANCH   2  11
ATOM     11  C3  UNL d          -1.769  -3.030  31.402  0.00  0.00     0.260 C 
ATOM     12  N1  UNL d          -2.966  -2.498  30.806  0.00  0.00    -0.301 N 
ATOM     13  C2  UNL d          -4.263  -2.851  31.053  0.00  0.00     0.173 A 
ATOM     14  H2  UNL d          -2.828  -1.758  30.103  0.00  0.00     0.171 HD
ATOM     15  S   UNL d          -4.771  -4.107  32.104  0.00  0.00    -0.062 SA
ATOM     16  N   UNL d          -5.273  -2.211  30.450  0.00  0.00    -0.236 NA
ATOM     17  C   UNL d          -6.420  -3.765  31.724  0.00  0.00     0.072 A 
ATOM     18  C1  UNL d          -6.484  -2.733  30.834  0.00  0.00     0.126 A 
ATOM     19  O   UNL d          -1.819  -3.920  32.262  0.00  0.00    -0.267 OA
ENDBRANCH   2  11
BRANCH   4  20
ATOM     20  S1  UNL d           0.445   0.563  28.362  0.00  0.00    -0.049 SA
BRANCH  20  21
ATOM     21  C10 UNL d           1.645   0.590  27.078  0.00  0.00     0.172 A 
ATOM     22  N2  UNL d           2.685   1.507  27.163  0.00  0.00    -0.339 N 
ATOM     23  C12 UNL d           3.361   1.184  25.995  0.00  0.00     0.112 A 
ATOM     24  C13 UNL d           2.985   2.527  28.193  0.00  0.00     0.158 C 
ATOM     25  C11 UNL d           2.711   0.146  25.320  0.00  0.00     0.136 A 
ATOM     26  N3  UNL d           1.578  -0.270  26.005  0.00  0.00    -0.235 NA
ENDBRANCH  20  21
ENDBRANCH   4  20
TORSDOF 3
ENDMDL
MODEL 2
REMARK VINA RESULT:      -7.6      1.883      2.534
REMARK  3 active torsions:
REMARK  status: ('A' for Active; 'I' for Inactive)
REMARK       I    between atoms: N1_6  and  C3_8 
REMARK    1  A    between atoms: C3_8  and  C5_11 
REMARK    2  A    between atoms: C7_13  and  S1_17 
REMARK    3  A    between atoms: S1_17  and  C10_19 
ROOT
ATOM      1  C4  UNL d          -1.541  -3.387  31.236  0.00  0.00     0.044 A 
ATOM      2  C5  UNL d          -2.533  -2.549  30.584  0.00  0.00     0.060 A 
ATOM      3  C6  UNL d          -2.059  -1.382  29.884  0.00  0.00     0.041 A 
ATOM      4  C7  UNL d          -0.687  -1.060  29.835  0.00  0.00     0.048 A 
ATOM      5  C8  UNL d           0.272  -1.889  30.482  0.00  0.00     0.135 A 
ATOM      6  F   UNL d           1.608  -1.605  30.453  0.00  0.00    -0.205 F 
ATOM      7  C9  UNL d          -0.165  -3.045  31.177  0.00  0.00     0.073 A 
ATOM      8  N4  UNL d          -1.848  -4.499  31.910  0.00  0.00    -0.398 N 
ATOM      9  H10 UNL d          -1.103  -5.054  32.354  0.00  0.00     0.156 HD
ATOM     10  H11 UNL d          -2.830  -4.800  31.986  0.00  0.00     0.156 HD
ENDROOT
BRANCH   2  11
ATOM     11  C3  UNL d          -4.063  -2.750  30.529  0.00  0.00     0.260 C 
ATOM     12  N1  UNL d          -4.911  -1.594  30.400  0.00  0.00    -0.301 N 
ATOM     13  C2  UNL d          -6.273  -1.549  30.315  0.00  0.00     0.173 A 
ATOM     14  H2  UNL d          -4.428  -0.685  30.368  0.00  0.00     0.171 HD
ATOM     15  S   UNL d          -7.313  -2.912  30.257  0.00  0.00    -0.062 SA
ATOM     16  N   UNL d          -6.918  -0.376  30.258  0.00  0.00    -0.236 NA
ATOM     17  C   UNL d          -8.685  -1.867  30.151  0.00  0.00     0.072 A 
ATOM     18  C1  UNL d          -8.274  -0.566  30.166  0.00  0.00     0.126 A 
ATOM     19  O   UNL d          -4.538  -3.893  30.583  0.00  0.00    -0.267 OA
ENDBRANCH   2  11
BRANCH   4  20
ATOM     20  S1  UNL d          -0.235   0.391  28.938  0.00  0.00    -0.049 SA
BRANCH  20  21
ATOM     21  C10 UNL d           0.995   0.087  27.720  0.00  0.00     0.172 A 
ATOM     22  N2  UNL d           0.614   0.073  26.384  0.00  0.00    -0.339 N 
ATOM     23  C12 UNL d           1.848  -0.187  25.805  0.00  0.00     0.112 A 
ATOM     24  C13 UNL d          -0.714   0.275  25.761  0.00  0.00     0.158 C 
ATOM     25  C11 UNL d           2.837  -0.307  26.786  0.00  0.00     0.136 A 
ATOM     26  N3  UNL d           2.311  -0.132  28.058  0.00  0.00    -0.235 NA
ENDBRANCH  20  21
ENDBRANCH   4  20
TORSDOF 3
ENDMDL
MODEL 3
REMARK VINA RESULT:      -7.5      3.663      6.031
REMARK  3 active torsions:
REMARK  status: ('A' for Active; 'I' for Inactive)
REMARK       I    between atoms: N1_6  and  C3_8 
REMARK    1  A    between atoms: C3_8  and  C5_11 
REMARK    2  A    between atoms: C7_13  and  S1_17 
REMARK    3  A    between atoms: S1_17  and  C10_19 
ROOT
ATOM      1  C4  UNL d          -0.363  -1.541  30.278  0.00  0.00     0.044 A 
ATOM      2  C5  UNL d           1.083  -1.462  30.158  0.00  0.00     0.060 A 
ATOM      3  C6  UNL d           1.617  -0.704  29.055  0.00  0.00     0.041 A 
ATOM      4  C7  UNL d           0.773  -0.066  28.124  0.00  0.00     0.048 A 
ATOM      5  C8  UNL d          -0.642  -0.156  28.252  0.00  0.00     0.135 A 
ATOM      6  F   UNL d          -1.488   0.450  27.367  0.00  0.00    -0.205 F 
ATOM      7  C9  UNL d          -1.196  -0.893  29.329  0.00  0.00     0.073 A 
ATOM      8  N4  UNL d          -0.983  -2.204  31.258  0.00  0.00    -0.398 N 
ATOM      9  H10 UNL d          -2.012  -2.227  31.293  0.00  0.00     0.156 HD
ATOM     10  H11 UNL d          -0.432  -2.692  31.978  0.00  0.00     0.156 HD
ENDROOT
BRANCH   2  11
ATOM     11  C3  UNL d           2.152  -2.086  31.082  0.00  0.00     0.260 C 
ATOM     12  N1  UNL d           3.411  -2.487  30.513  0.00  0.00    -0.301 N 
ATOM     13  C2  UNL d           4.490  -3.036  31.147  0.00  0.00     0.173 A 
ATOM     14  H2  UNL d           3.513  -2.341  29.499  0.00  0.00     0.171 HD
ATOM     15  S   UNL d           4.622  -3.305  32.836  0.00  0.00    -0.062 SA
ATOM     16  N   UNL d           5.575  -3.410  30.455  0.00  0.00    -0.236 NA
ATOM     17  C   UNL d           6.208  -3.952  32.614  0.00  0.00     0.072 A 
ATOM     18  C1  UNL d           6.536  -3.924  31.289  0.00  0.00     0.126 A 
ATOM     19  O   UNL d           1.920  -2.222  32.291  0.00  0.00    -0.267 OA
ENDBRANCH   2  11
BRANCH   4  20
ATOM     20  S1  UNL d           1.551   0.837  26.822  0.00  0.00    -0.049 SA
BRANCH  20  21
ATOM     21  C10 UNL d           1.237   2.565  26.906  0.00  0.00     0.172 A 
ATOM     22  N2  UNL d           2.095   3.358  27.657  0.00  0.00    -0.339 N 
ATOM     23  C12 UNL d           1.497   4.592  27.447  0.00  0.00     0.112 A 
ATOM     24  C13 UNL d           3.292   2.995  28.448  0.00  0.00     0.158 C 
ATOM     25  C11 UNL d           0.374   4.462  26.624  0.00  0.00     0.136 A 
ATOM     26  N3  UNL d           0.173   3.141  26.250  0.00  0.00    -0.235 NA
ENDBRANCH  20  21
ENDBRANCH   4  20
TORSDOF 3
ENDMDL
