@<TRIPOS>MOLECULE
MOL
   35    37     1     0     0
SMALL
No Charge or Current Charge


@<TRIPOS>ATOM
      1 C1          -0.3630    -1.5410    30.2780 ca         1 MOL       0.000000
      2 C2           1.0830    -1.4620    30.1580 ca         1 MOL       0.000000
      3 C3           1.6170    -0.7040    29.0550 ca         1 MOL       0.000000
      4 C4           0.7730    -0.0660    28.1240 ca         1 MOL       0.000000
      5 C5          -0.6420    -0.1560    28.2520 ca         1 MOL       0.000000
      6 F1          -1.4880     0.4500    27.3670 f          1 MOL       0.000000
      7 C6          -1.1960    -0.8930    29.3290 ca         1 MOL       0.000000
      8 N1          -0.9830    -2.2040    31.2580 nh         1 MOL       0.000000
      9 H1          -2.0120    -2.2270    31.2930 hn         1 MOL       0.000000
     10 H2          -0.4320    -2.6920    31.9780 hn         1 MOL       0.000000
     11 C7           2.1520    -2.0860    31.0820 c          1 MOL       0.000000
     12 N2           3.4110    -2.4870    30.5130 n          1 MOL       0.000000
     13 C8           4.4900    -3.0360    31.1470 cc         1 MOL       0.000000
     14 H3           3.5130    -2.3410    29.4990 hn         1 MOL       0.000000
     15 S1           4.6220    -3.3050    32.8360 ss         1 MOL       0.000000
     16 N3           5.5750    -3.4100    30.4550 nd         1 MOL       0.000000
     17 C9           6.2080    -3.9520    32.6140 cc         1 MOL       0.000000
     18 C10          6.5360    -3.9240    31.2890 cd         1 MOL       0.000000
     19 O1           1.9200    -2.2220    32.2910 o          1 MOL       0.000000
     20 S2           1.5510     0.8370    26.8220 ss         1 MOL       0.000000
     21 C11          1.2370     2.5650    26.9060 cd         1 MOL       0.000000
     22 N4           2.0950     3.3580    27.6570 na         1 MOL       0.000000
     23 C12          1.4970     4.5920    27.4470 cd         1 MOL       0.000000
     24 C13          3.2920     2.9950    28.4480 c3         1 MOL       0.000000
     25 C14          0.3740     4.4620    26.6240 cc         1 MOL       0.000000
     26 N5           0.1730     3.1410    26.2500 nc         1 MOL       0.000000
     27 H4           2.6400    -0.6270    28.9440 ha         1 MOL       0.000000
     28 H5          -2.2210    -0.9590    29.4240 ha         1 MOL       0.000000
     29 H6           6.8160    -4.3060    33.3690 h4         1 MOL       0.000000
     30 H7           7.4440    -4.2660    30.9390 h4         1 MOL       0.000000
     31 H8           1.8340     5.4830    27.8430 h4         1 MOL       0.000000
     32 H9           3.4580     1.9400    28.3810 h1         1 MOL       0.000000
     33 H10          3.1390     3.2680    29.4710 h1         1 MOL       0.000000
     34 H11          4.1450     3.5150    28.0640 h1         1 MOL       0.000000
     35 H12         -0.2280     5.2480    26.3320 h4         1 MOL       0.000000
@<TRIPOS>BOND
     1     1     8 1   
     2     2     1 ar  
     3     2    11 1   
     4     3     2 ar  
     5     3    27 1   
     6     4     5 ar  
     7     4     3 ar  
     8     5     7 ar  
     9     6     5 1   
    10     7     1 ar  
    11     7    28 1   
    12     8     9 1   
    13     8    10 1   
    14    11    19 2   
    15    12    11 1   
    16    12    13 1   
    17    13    15 1   
    18    14    12 1   
    19    16    13 2   
    20    16    18 1   
    21    17    15 1   
    22    17    29 1   
    23    18    17 2   
    24    18    30 1   
    25    20    21 1   
    26    20     4 1   
    27    21    22 1   
    28    22    24 1   
    29    23    22 1   
    30    23    31 1   
    31    24    32 1   
    32    24    33 1   
    33    24    34 1   
    34    25    23 2   
    35    25    35 1   
    36    26    25 1   
    37    26    21 2   
@<TRIPOS>SUBSTRUCTURE
     1 MOL         1 TEMP              0 ****  ****    0 ROOT
