@<TRIPOS>MOLECULE
MOL
   37    36     1     0     0
SMALL
No Charge or Current Charge


@<TRIPOS>ATOM
      1 N1          15.1410    61.7300    35.3350 n          1 MOL       0.000000
      2 C1          14.9710    62.9710    35.9710 c          1 MOL       0.000000
      3 O1          14.1560    63.7860    35.5780 o          1 MOL       0.000000
      4 H1          15.8030    61.0540    35.7410 hn         1 MOL       0.000000
      5 C2          15.8080    63.2130    37.2240 c3         1 MOL       0.000000
      6 C3          17.2920    63.0880    36.8690 cc         1 MOL       0.000000
      7 C4          18.1300    64.1350    36.4330 cd         1 MOL       0.000000
      8 N2          19.3950    63.5800    36.2550 na         1 MOL       0.000000
      9 C5          19.3610    62.2360    36.5970 ca         1 MOL       0.000000
     10 H2          20.2260    64.0880    35.9210 hn         1 MOL       0.000000
     11 C6          18.0670    61.9160    37.0120 ca         1 MOL       0.000000
     12 C7          20.3610    61.2600    36.6280 ca         1 MOL       0.000000
     13 C8          17.7590    60.6390    37.4810 ca         1 MOL       0.000000
     14 C9          18.7700    59.6860    37.4850 ca         1 MOL       0.000000
     15 C10         20.0600    59.9860    37.0720 ca         1 MOL       0.000000
     16 C11         14.4130    61.3590    34.1160 c1         1 MOL       0.000000
     17 H3          14.1290    62.2680    33.5620 ha         1 MOL       0.000000
     18 C12         15.3230    60.4480    33.2240 c3         1 MOL       0.000000
     19 C13         16.7880    60.6380    33.6650 c          1 MOL       0.000000
     20 O2          17.3380    61.8530    33.5540 o          1 MOL       0.000000
     21 O3          17.4390    59.6270    34.1730 oh         1 MOL       0.000000
     22 C14         13.1530    60.6300    34.5750 c          1 MOL       0.000000
     23 O4          12.0290    60.7420    33.8450 oh         1 MOL       0.000000
     24 O5          13.2170    59.8790    35.5950 o          1 MOL       0.000000
     25 H4          15.5560    62.4870    37.9690 hc         1 MOL       0.000000
     26 H5          15.6110    64.1930    37.6050 hc         1 MOL       0.000000
     27 H6          17.8590    65.1180    36.2770 h4         1 MOL       0.000000
     28 H7          21.3190    61.4890    36.3210 ha         1 MOL       0.000000
     29 H8          16.8100    60.4090    37.8150 ha         1 MOL       0.000000
     30 H9          18.5550    58.7280    37.8040 ha         1 MOL       0.000000
     31 H10         20.7930    59.2600    37.0960 ha         1 MOL       0.000000
     32 H11         14.9450    61.3700    32.8340 hc         1 MOL       0.000000
     33 H12         14.7330    60.1490    34.0650 hc         1 MOL       0.000000
     34 H13         15.2730    59.6930    32.4670 hc         1 MOL       0.000000
     35 H14         17.0260    58.7880    34.2370 ho         1 MOL       0.000000
     36 H15         13.9870    61.1700    34.2970 h5         1 MOL       0.000000
     37 H16         12.0110    61.3050    33.0960 ho         1 MOL       0.000000
@<TRIPOS>BOND
     1     1     4 1   
     2     1     2 1   
     3     2     5 1   
     4     3     2 2   
     5     5    25 1   
     6     5    26 1   
     7     6    11 1   
     8     6     5 1   
     9     7     6 2   
    10     7    27 1   
    11     8     7 1   
    12     8     9 1   
    13     9    12 ar  
    14     9    11 ar  
    15    10     8 1   
    16    11    13 ar  
    17    12    15 ar  
    18    12    28 1   
    19    13    14 ar  
    20    13    29 1   
    21    14    30 1   
    22    15    14 ar  
    23    15    31 1   
    24    16     1 3   
    25    17    16 1   
    26    18    19 1   
    27    18    32 1   
    28    18    33 1   
    29    18    34 1   
    30    19    21 1   
    31    20    19 2   
    32    21    35 1   
    33    22    24 2   
    34    22    36 1   
    35    23    22 1   
    36    23    37 1   
@<TRIPOS>SUBSTRUCTURE
     1 MOL         1 TEMP              0 ****  ****    0 ROOT
