@<TRIPOS>MOLECULE
MOL
   37    36     1     0     0
SMALL
No Charge or Current Charge


@<TRIPOS>ATOM
      1 N1          13.7560    60.6330    35.1050 n          1 MOL       0.000000
      2 C1          15.0970    60.9560    35.3680 c          1 MOL       0.000000
      3 O1          15.9660    60.8160    34.5270 o          1 MOL       0.000000
      4 H1          13.0500    60.8240    35.8310 hn         1 MOL       0.000000
      5 C2          15.3950    61.5630    36.7360 c3         1 MOL       0.000000
      6 C3          16.6970    62.3640    36.6570 cc         1 MOL       0.000000
      7 C4          16.8030    63.7620    36.5060 cd         1 MOL       0.000000
      8 N2          18.1630    64.0580    36.5100 na         1 MOL       0.000000
      9 C5          18.8890    62.8890    36.6900 ca         1 MOL       0.000000
     10 H2          18.5680    64.9990    36.3980 hn         1 MOL       0.000000
     11 C6          17.9940    61.8260    36.8140 ca         1 MOL       0.000000
     12 C7          20.2630    62.6580    36.8030 ca         1 MOL       0.000000
     13 C8          18.4470    60.5320    37.0740 ca         1 MOL       0.000000
     14 C9          19.8200    60.3300    37.1650 ca         1 MOL       0.000000
     15 C10         20.7230    61.3750    37.0380 ca         1 MOL       0.000000
     16 C11         13.3200    60.0350    33.8380 c1         1 MOL       0.000000
     17 H3          14.1800    59.5680    33.3330 ha         1 MOL       0.000000
     18 C12         12.2170    58.9590    34.1250 c3         1 MOL       0.000000
     19 C13         11.7620    59.1030    35.5910 c          1 MOL       0.000000
     20 O2          10.7610    59.9460    35.8710 o          1 MOL       0.000000
     21 O3          12.3310    58.3710    36.5110 oh         1 MOL       0.000000
     22 C14         12.7870    61.1810    32.9840 c          1 MOL       0.000000
     23 O4          13.6590    62.0400    32.4230 oh         1 MOL       0.000000
     24 O5          11.5400    61.2550    32.7650 o          1 MOL       0.000000
     25 H4          15.4990    60.7820    37.4600 hc         1 MOL       0.000000
     26 H5          14.5920    62.2080    37.0260 hc         1 MOL       0.000000
     27 H6          16.0250    64.4340    36.4110 h4         1 MOL       0.000000
     28 H7          20.9300    63.4400    36.7120 ha         1 MOL       0.000000
     29 H8          17.7850    59.7500    37.1950 ha         1 MOL       0.000000
     30 H9          20.1770    59.3760    37.3320 ha         1 MOL       0.000000
     31 H10         21.7360    61.1960    37.1190 ha         1 MOL       0.000000
     32 H11         11.6520    59.6270    33.5090 hc         1 MOL       0.000000
     33 H12         12.0580    57.9520    33.8000 hc         1 MOL       0.000000
     34 H13         13.2570    59.1980    34.0490 hc         1 MOL       0.000000
     35 H14         13.0300    57.7900    36.2820 ho         1 MOL       0.000000
     36 H15         13.1430    60.4420    33.6100 h5         1 MOL       0.000000
     37 H16         14.5750    61.9620    32.6030 ho         1 MOL       0.000000
@<TRIPOS>BOND
     1     1     2 1   
     2     1     4 1   
     3     2     5 1   
     4     3     2 2   
     5     5    25 1   
     6     5    26 1   
     7     6     5 1   
     8     6    11 1   
     9     7     8 1   
    10     7     6 2   
    11     7    27 1   
    12     8     9 1   
    13     9    12 ar  
    14     9    11 ar  
    15    10     8 1   
    16    11    13 ar  
    17    12    15 ar  
    18    12    28 1   
    19    13    14 ar  
    20    13    29 1   
    21    14    30 1   
    22    15    14 ar  
    23    15    31 1   
    24    16     1 3   
    25    17    16 1   
    26    18    19 1   
    27    18    32 1   
    28    18    33 1   
    29    18    34 1   
    30    19    20 2   
    31    19    21 1   
    32    21    35 1   
    33    22    36 1   
    34    23    22 1   
    35    23    37 1   
    36    24    22 2   
@<TRIPOS>SUBSTRUCTURE
     1 MOL         1 TEMP              0 ****  ****    0 ROOT
