@<TRIPOS>MOLECULE
MOL
   37    36     1     0     0
SMALL
No Charge or Current Charge


@<TRIPOS>ATOM
      1 N1          14.2440    61.7910    33.1920 n          1 MOL       0.000000
      2 C1          15.1060    62.1910    34.2260 c          1 MOL       0.000000
      3 O1          14.6990    62.3980    35.3550 o          1 MOL       0.000000
      4 H1          14.6470    61.5740    32.2690 hn         1 MOL       0.000000
      5 C2          16.5890    62.2780    33.8790 c3         1 MOL       0.000000
      6 C3          17.2590    60.9400    34.2000 cc         1 MOL       0.000000
      7 C4          17.4520    59.8730    33.2980 cd         1 MOL       0.000000
      8 N2          18.1200    58.8750    34.0030 na         1 MOL       0.000000
      9 C5          18.3670    59.3120    35.2960 ca         1 MOL       0.000000
     10 H2          18.3890    57.9560    33.6230 hn         1 MOL       0.000000
     11 C6          17.8660    60.6070    35.4310 ca         1 MOL       0.000000
     12 C7          19.0310    58.7090    36.3690 ca         1 MOL       0.000000
     13 C8          18.0370    61.3240    36.6150 ca         1 MOL       0.000000
     14 C9          18.6870    60.6920    37.6700 ca         1 MOL       0.000000
     15 C10         19.1860    59.4030    37.5550 ca         1 MOL       0.000000
     16 C11         12.7920    61.6710    33.3730 c1         1 MOL       0.000000
     17 H3          12.4760    62.2720    34.2410 ha         1 MOL       0.000000
     18 C12         12.0640    62.1720    32.0790 c3         1 MOL       0.000000
     19 C13         12.9760    63.1910    31.3670 c          1 MOL       0.000000
     20 O2          13.2900    64.3250    32.0040 oh         1 MOL       0.000000
     21 O3          13.4520    62.9040    30.1850 o          1 MOL       0.000000
     22 C14         12.5150    60.1960    33.6480 c          1 MOL       0.000000
     23 O4          11.2530    59.8010    33.8920 oh         1 MOL       0.000000
     24 O5          13.4730    59.3680    33.5680 o          1 MOL       0.000000
     25 H4          16.7010    62.4940    32.8370 hc         1 MOL       0.000000
     26 H5          17.0480    63.0570    34.4520 hc         1 MOL       0.000000
     27 H6          17.1560    59.8390    32.3100 h4         1 MOL       0.000000
     28 H7          19.4030    57.7510    36.2760 ha         1 MOL       0.000000
     29 H8          17.6920    62.2920    36.7060 ha         1 MOL       0.000000
     30 H9          18.8010    61.1960    38.5630 ha         1 MOL       0.000000
     31 H10         19.6720    58.9630    38.3520 ha         1 MOL       0.000000
     32 H11         11.9090    61.3260    31.4420 hc         1 MOL       0.000000
     33 H12         11.1220    62.6300    32.3000 hc         1 MOL       0.000000
     34 H13         12.5280    61.8530    32.9890 hc         1 MOL       0.000000
     35 H14         12.9310    64.5010    32.8520 ho         1 MOL       0.000000
     36 H15         12.7100    61.2020    33.5220 h5         1 MOL       0.000000
     37 H16         10.5660    60.4350    33.9460 ho         1 MOL       0.000000
@<TRIPOS>BOND
     1     1    16 3   
     2     1     2 1   
     3     2     3 2   
     4     4     1 1   
     5     5     6 1   
     6     5     2 1   
     7     5    25 1   
     8     5    26 1   
     9     6    11 1   
    10     7     8 1   
    11     7     6 2   
    12     7    27 1   
    13     8     9 1   
    14     9    11 ar  
    15     9    12 ar  
    16    10     8 1   
    17    11    13 ar  
    18    12    15 ar  
    19    12    28 1   
    20    13    14 ar  
    21    13    29 1   
    22    14    30 1   
    23    15    14 ar  
    24    15    31 1   
    25    16    17 1   
    26    18    32 1   
    27    18    33 1   
    28    18    34 1   
    29    19    20 1   
    30    19    18 1   
    31    20    35 1   
    32    21    19 2   
    33    22    23 1   
    34    22    36 1   
    35    23    37 1   
    36    24    22 2   
@<TRIPOS>SUBSTRUCTURE
     1 MOL         1 TEMP              0 ****  ****    0 ROOT
