@<TRIPOS>MOLECULE
MOL
   59    59     1     0     0
SMALL
No Charge or Current Charge


@<TRIPOS>ATOM
      1 N1          11.2780   139.3060    44.0200 n2         1 MOL       0.000000
      2 N2          14.5460   137.0180    44.9590 na         1 MOL       0.000000
      3 C1          13.3630   137.6430    44.7060 cc         1 MOL       0.000000
      4 N3          12.0000   137.1350    44.7390 nh         1 MOL       0.000000
      5 C2          10.9920   138.0040    44.4290 c2         1 MOL       0.000000
      6 C3          12.5400   139.8350    43.9460 c3         1 MOL       0.000000
      7 C4          13.6430   139.0330    44.3060 cc         1 MOL       0.000000
      8 N4          14.9970   139.1600    44.3440 nc         1 MOL       0.000000
      9 C5          15.5080   137.9650    44.7410 cd         1 MOL       0.000000
     10 N5           9.6880   137.5880    44.4430 nh         1 MOL       0.000000
     11 H1           9.1370   137.4970    43.5780 hn         1 MOL       0.000000
     12 C6           9.1200   137.2810    45.7560 c1         1 MOL       0.000000
     13 H2           9.9580   137.3550    46.4720 ha         1 MOL       0.000000
     14 C7           8.8030   135.7920    46.0020 c3         1 MOL       0.000000
     15 C8          10.0620   134.9160    46.2210 c3         1 MOL       0.000000
     16 H3          10.1250   134.1270    45.4530 hc         1 MOL       0.000000
     17 H4          10.9920   135.5030    46.1690 hc         1 MOL       0.000000
     18 H5          10.0240   134.4140    47.2030 hc         1 MOL       0.000000
     19 C9           7.7340   135.1920    45.0970 c3         1 MOL       0.000000
     20 H6           8.2030   134.6590    44.2510 hc         1 MOL       0.000000
     21 H7           7.1240   134.4410    45.6260 hc         1 MOL       0.000000
     22 H8           7.0610   135.9510    44.6670 hc         1 MOL       0.000000
     23 C10          8.1080   138.3050    46.3030 c3         1 MOL       0.000000
     24 O1           8.8350   139.3110    46.9570 oh         1 MOL       0.000000
     25 H9           9.1960   138.9490    47.8510 ho         1 MOL       0.000000
     26 N6          12.7810   141.1320    43.5480 nh         1 MOL       0.000000
     27 H10         13.5430   141.6430    44.0150 hn         1 MOL       0.000000
     28 C11         12.0790   141.7850    42.5780 ca         1 MOL       0.000000
     29 C12         12.1510   141.3310    41.2450 ca         1 MOL       0.000000
     30 C13         11.4840   142.0080    40.2340 ca         1 MOL       0.000000
     31 C14         10.7430   143.1630    40.5440 ca         1 MOL       0.000000
     32 C15         10.7000   143.6550    41.9500 ca         1 MOL       0.000000
     33 Cl1          9.9380   144.9130    42.3430 cl         1 MOL       0.000000
     34 C16         11.3740   142.9220    42.9140 ca         1 MOL       0.000000
     35 C17         10.0270   143.9070    39.4680 c          1 MOL       0.000000
     36 O2           8.7880   143.9900    39.4940 oh         1 MOL       0.000000
     37 O3          10.6650   144.4350    38.5440 o          1 MOL       0.000000
     38 C18         14.8390   135.6570    45.4760 c3         1 MOL       0.000000
     39 C19         16.3200   135.6530    45.8080 c3         1 MOL       0.000000
     40 C20         14.0750   135.2360    46.7240 c3         1 MOL       0.000000
     41 H11         11.8110   136.1980    44.9760 hn         1 MOL       0.000000
     42 H12         11.6540   140.1640    43.4440 h2         1 MOL       0.000000
     43 H13         16.5170   137.7900    44.8650 h5         1 MOL       0.000000
     44 H14          8.3600   135.9760    46.9580 hc         1 MOL       0.000000
     45 H15          9.1440   136.6770    45.5060 hc         1 MOL       0.000000
     46 H16          7.7330   138.6820    45.3740 h1         1 MOL       0.000000
     47 H17          7.2890   137.9980    46.9200 h1         1 MOL       0.000000
     48 H18          8.7470   137.4670    46.1160 h1         1 MOL       0.000000
     49 H19         12.7040   140.4890    41.0200 ha         1 MOL       0.000000
     50 H20         11.5310   141.6670    39.2610 ha         1 MOL       0.000000
     51 H21         11.3480   143.2320    43.8980 ha         1 MOL       0.000000
     52 H22          8.3060   143.5910    40.1920 ho         1 MOL       0.000000
     53 H23         14.5370   134.9610    44.7220 h1         1 MOL       0.000000
     54 H24         16.5170   136.3800    46.5680 hc         1 MOL       0.000000
     55 H25         16.8830   135.8930    44.9300 hc         1 MOL       0.000000
     56 H26         16.6040   134.6830    46.1600 hc         1 MOL       0.000000
     57 H27         14.3250   135.8900    47.5330 hc         1 MOL       0.000000
     58 H28         14.3400   134.2320    46.9830 hc         1 MOL       0.000000
     59 H29         13.0240   135.2900    46.5340 hc         1 MOL       0.000000
@<TRIPOS>BOND
     1     1     5 2   
     2     2    38 1   
     3     3     4 1   
     4     3     2 1   
     5     4    41 1   
     6     5    10 1   
     7     5     4 1   
     8     6     1 1   
     9     6     7 1   
    10     6    42 1   
    11     7     8 1   
    12     7     3 2   
    13     8     9 2   
    14     9     2 1   
    15     9    43 1   
    16    10    12 3   
    17    11    10 1   
    18    12    13 1   
    19    14    15 1   
    20    14    44 1   
    21    14    45 1   
    22    15    18 1   
    23    16    15 1   
    24    17    15 1   
    25    19    21 1   
    26    19    14 1   
    27    20    19 1   
    28    22    19 1   
    29    23    24 1   
    30    23    46 1   
    31    23    47 1   
    32    23    48 1   
    33    24    25 1   
    34    26     6 1   
    35    26    27 1   
    36    28    34 ar  
    37    28    26 1   
    38    29    28 ar  
    39    29    49 1   
    40    30    31 ar  
    41    30    29 ar  
    42    30    50 1   
    43    31    32 ar  
    44    32    33 1   
    45    32    34 ar  
    46    34    51 1   
    47    35    36 1   
    48    35    31 1   
    49    36    52 1   
    50    37    35 2   
    51    38    39 1   
    52    38    40 1   
    53    38    53 1   
    54    39    54 1   
    55    39    55 1   
    56    39    56 1   
    57    40    57 1   
    58    40    58 1   
    59    40    59 1   
@<TRIPOS>SUBSTRUCTURE
     1 MOL         1 TEMP              0 ****  ****    0 ROOT
