@<TRIPOS>MOLECULE
MOL
   59    59     1     0     0
SMALL
No Charge or Current Charge


@<TRIPOS>ATOM
      1 N1          11.4520   140.0890    43.6390 n2         1 MOL       0.000000
      2 N2          15.2750   139.4670    44.9790 na         1 MOL       0.000000
      3 C1          13.9640   139.5210    44.6120 cc         1 MOL       0.000000
      4 N3          12.9170   138.5140    44.7000 nh         1 MOL       0.000000
      5 C2          11.6750   138.8520    44.2420 c2         1 MOL       0.000000
      6 C3          12.4020   141.0670    43.5060 c3         1 MOL       0.000000
      7 C4          13.7000   140.8370    44.0050 cc         1 MOL       0.000000
      8 N4          14.8860   141.5040    44.0460 nc         1 MOL       0.000000
      9 C5          15.7950   140.6830    44.6320 cd         1 MOL       0.000000
     10 N5          10.6450   137.9500    44.2990 nh         1 MOL       0.000000
     11 H1          10.1720   137.6120    43.4490 hn         1 MOL       0.000000
     12 C6          10.2550   137.4960    45.6330 c1         1 MOL       0.000000
     13 H2          11.1100   137.7270    46.2930 ha         1 MOL       0.000000
     14 C7          10.2760   135.9680    45.8380 c3         1 MOL       0.000000
     15 C8          11.4840   135.2670    45.1690 c3         1 MOL       0.000000
     16 H3          12.3770   135.9140    45.2050 hc         1 MOL       0.000000
     17 H4          11.7440   134.3190    45.6640 hc         1 MOL       0.000000
     18 H5          11.2750   135.0570    44.1060 hc         1 MOL       0.000000
     19 C9           8.9330   135.2670    45.6700 c3         1 MOL       0.000000
     20 H6           9.0690   134.2950    45.1640 hc         1 MOL       0.000000
     21 H7           8.4670   135.0380    46.6430 hc         1 MOL       0.000000
     22 H8           8.2180   135.8480    45.0670 hc         1 MOL       0.000000
     23 C10          9.0950   138.2680    46.2890 c3         1 MOL       0.000000
     24 O1           8.1310   138.5070    45.2980 oh         1 MOL       0.000000
     25 H9           8.5870   138.9090    44.4660 ho         1 MOL       0.000000
     26 N6          12.1390   142.2840    42.9150 nh         1 MOL       0.000000
     27 H10         12.2780   143.1330    43.4810 hn         1 MOL       0.000000
     28 C11         11.7070   142.4410    41.6300 ca         1 MOL       0.000000
     29 C12         12.3990   141.7990    40.5820 ca         1 MOL       0.000000
     30 C13         12.0070   141.9830    39.2640 ca         1 MOL       0.000000
     31 C14         10.9190   142.8290    38.9750 ca         1 MOL       0.000000
     32 C15         10.2150   143.5290    40.0860 ca         1 MOL       0.000000
     33 Cl1          9.0500   144.4760    39.8340 cl         1 MOL       0.000000
     34 C16         10.6470   143.2870    41.3800 ca         1 MOL       0.000000
     35 C17         10.4900   143.0430    37.5630 c          1 MOL       0.000000
     36 O2           9.8960   142.1370    36.9540 o          1 MOL       0.000000
     37 O3          10.7310   144.1190    36.9940 oh         1 MOL       0.000000
     38 C18         16.0420   138.4250    45.7080 c3         1 MOL       0.000000
     39 C19         16.2710   137.3080    44.7060 c3         1 MOL       0.000000
     40 C20         17.3960   138.8520    46.2570 c3         1 MOL       0.000000
     41 H11         13.0970   137.6220    45.0760 hn         1 MOL       0.000000
     42 H12         11.4970   140.9210    42.9540 h2         1 MOL       0.000000
     43 H13         16.7780   140.9500    44.7980 h5         1 MOL       0.000000
     44 H14         10.1910   136.9490    45.4180 hc         1 MOL       0.000000
     45 H15         10.4790   135.9640    46.8890 hc         1 MOL       0.000000
     46 H16          8.6220   137.8510    47.1530 h1         1 MOL       0.000000
     47 H17          9.5710   139.1890    46.5530 h1         1 MOL       0.000000
     48 H18          9.8270   137.5820    45.9170 h1         1 MOL       0.000000
     49 H19         13.2030   141.1880    40.7970 ha         1 MOL       0.000000
     50 H20         12.5090   141.5030    38.5010 ha         1 MOL       0.000000
     51 H21         10.1680   143.7470    42.1700 ha         1 MOL       0.000000
     52 H22         11.1790   144.8020    37.4530 ho         1 MOL       0.000000
     53 H23         15.4700   138.1560    46.5710 h1         1 MOL       0.000000
     54 H24         16.8500   137.6780    43.8860 hc         1 MOL       0.000000
     55 H25         15.3280   136.9530    44.3460 hc         1 MOL       0.000000
     56 H26         16.7970   136.5060    45.1800 hc         1 MOL       0.000000
     57 H27         18.0340   139.1400    45.4480 hc         1 MOL       0.000000
     58 H28         17.8390   138.0360    46.7880 hc         1 MOL       0.000000
     59 H29         17.2660   139.6810    46.9210 hc         1 MOL       0.000000
@<TRIPOS>BOND
     1     1     5 2   
     2     2    38 1   
     3     3     4 1   
     4     3     2 1   
     5     4    41 1   
     6     5    10 1   
     7     5     4 1   
     8     6     1 1   
     9     6     7 1   
    10     6    42 1   
    11     7     8 1   
    12     7     3 2   
    13     8     9 2   
    14     9     2 1   
    15     9    43 1   
    16    10    12 3   
    17    11    10 1   
    18    12    13 1   
    19    14    44 1   
    20    14    45 1   
    21    15    16 1   
    22    15    17 1   
    23    15    14 1   
    24    18    15 1   
    25    19    14 1   
    26    19    21 1   
    27    20    19 1   
    28    22    19 1   
    29    23    46 1   
    30    23    47 1   
    31    23    48 1   
    32    24    23 1   
    33    25    24 1   
    34    26    27 1   
    35    26     6 1   
    36    28    26 1   
    37    29    28 ar  
    38    29    49 1   
    39    30    29 ar  
    40    30    50 1   
    41    31    30 ar  
    42    31    32 ar  
    43    32    34 ar  
    44    33    32 1   
    45    34    28 ar  
    46    34    51 1   
    47    35    31 1   
    48    36    35 2   
    49    37    35 1   
    50    37    52 1   
    51    38    40 1   
    52    38    53 1   
    53    39    38 1   
    54    39    54 1   
    55    39    55 1   
    56    39    56 1   
    57    40    57 1   
    58    40    58 1   
    59    40    59 1   
@<TRIPOS>SUBSTRUCTURE
     1 MOL         1 TEMP              0 ****  ****    0 ROOT
