@<TRIPOS>MOLECULE
MOL
   37    39     1     0     0
SMALL
No Charge or Current Charge


@<TRIPOS>ATOM
      1 C1          53.1810    51.2140    14.5210 c          1 MOL       0.000000
      2 O1          54.1380    51.2990    13.7050 o          1 MOL       0.000000
      3 N1          53.3010    51.7680    15.7970 n          1 MOL       0.000000
      4 H1          54.1880    52.2370    16.0310 hn         1 MOL       0.000000
      5 C2          51.9130    50.5600    14.2270 cc         1 MOL       0.000000
      6 C3          50.9150    50.5040    15.1780 cd         1 MOL       0.000000
      7 C4          51.0570    51.0830    16.5020 cd         1 MOL       0.000000
      8 C5          52.2990    51.7330    16.7900 cc         1 MOL       0.000000
      9 C6          52.6270    52.3890    18.1110 c3         1 MOL       0.000000
     10 C7          51.4230    52.3510    19.1520 c3         1 MOL       0.000000
     11 C8          50.4650    53.5480    18.9780 c2         1 MOL       0.000000
     12 C9          51.0890    49.9880    21.2440 c3         1 MOL       0.000000
     13 C10         50.4730    50.0770    19.8810 c2         1 MOL       0.000000
     14 C11         50.6090    51.0470    18.9860 c2         1 MOL       0.000000
     15 C12         49.9120    51.0120    17.6050 c3         1 MOL       0.000000
     16 C13         48.9430    52.2230    17.4650 c3         1 MOL       0.000000
     17 C14         49.3400    53.4850    18.2100 c2         1 MOL       0.000000
     18 C15         48.3810    54.6430    18.0330 c3         1 MOL       0.000000
     19 N2          49.1210    49.7620    17.4280 n4         1 MOL       0.000000
     20 H2          49.1620    49.4230    16.4760 hn         1 MOL       0.000000
     21 H3          49.4520    49.0180    18.0280 hn         1 MOL       0.000000
     22 H4          48.1420    49.8940    17.6520 hn         1 MOL       0.000000
     23 H5          51.7600    50.1350    13.2990 ha         1 MOL       0.000000
     24 H6          50.0300    50.0310    14.9380 ha         1 MOL       0.000000
     25 H7          52.8850    53.4110    17.9270 hc         1 MOL       0.000000
     26 H8          53.4370    51.8400    18.5440 hc         1 MOL       0.000000
     27 H9          51.8600    52.4000    20.1280 hc         1 MOL       0.000000
     28 H10         50.6850    54.4320    19.4630 ha         1 MOL       0.000000
     29 H11         50.7810    49.0780    21.7160 hc         1 MOL       0.000000
     30 H12         50.7700    50.8220    21.8340 hc         1 MOL       0.000000
     31 H13         52.1550    50.0010    21.1550 hc         1 MOL       0.000000
     32 H14         49.8690    49.2870    19.6050 ha         1 MOL       0.000000
     33 H15         47.9830    51.9180    17.8270 hc         1 MOL       0.000000
     34 H16         48.9580    52.4850    16.4280 hc         1 MOL       0.000000
     35 H17         47.5800    54.3480    17.3880 hc         1 MOL       0.000000
     36 H18         48.9000    55.4730    17.6010 hc         1 MOL       0.000000
     37 H19         47.9850    54.9270    18.9860 hc         1 MOL       0.000000
@<TRIPOS>BOND
     1     1     3 1   
     2     2     1 2   
     3     3     4 1   
     4     3     8 1   
     5     5     1 1   
     6     5     6 2   
     7     5    23 1   
     8     6     7 1   
     9     6    24 1   
    10     7     8 2   
    11     7    15 1   
    12     8     9 1   
    13     9    10 1   
    14     9    25 1   
    15     9    26 1   
    16    10    27 1   
    17    11    10 1   
    18    11    28 1   
    19    12    29 1   
    20    12    30 1   
    21    12    31 1   
    22    13    12 1   
    23    13    32 1   
    24    14    10 1   
    25    14    13 2   
    26    15    19 1   
    27    15    14 1   
    28    16    15 1   
    29    16    17 1   
    30    16    33 1   
    31    16    34 1   
    32    17    11 2   
    33    18    17 1   
    34    18    35 1   
    35    18    36 1   
    36    18    37 1   
    37    19    22 1   
    38    19    21 1   
    39    20    19 1   
@<TRIPOS>SUBSTRUCTURE
     1 MOL         1 TEMP              0 ****  ****    0 ROOT
