@<TRIPOS>MOLECULE
MOL
   37    39     1     0     0
SMALL
No Charge or Current Charge


@<TRIPOS>ATOM
      1 C1          50.6440    56.3450    19.2250 c          1 MOL       0.000000
      2 O1          50.1010    57.4760    19.3460 o          1 MOL       0.000000
      3 N1          49.9070    55.2670    18.7270 n          1 MOL       0.000000
      4 H1          48.9240    55.4400    18.4710 hn         1 MOL       0.000000
      5 C2          52.0290    56.0620    19.5740 cc         1 MOL       0.000000
      6 C3          52.5480    54.7930    19.4170 cd         1 MOL       0.000000
      7 C4          51.7680    53.6830    18.9010 cd         1 MOL       0.000000
      8 C5          50.4080    53.9600    18.5490 cc         1 MOL       0.000000
      9 C6          49.4470    52.9320    17.9980 c3         1 MOL       0.000000
     10 C7          50.1100    51.5010    17.7790 c3         1 MOL       0.000000
     11 C8          50.7840    51.3780    16.3960 c2         1 MOL       0.000000
     12 C9          50.0620    49.2670    20.0320 c3         1 MOL       0.000000
     13 C10         51.1400    50.2790    19.7910 c2         1 MOL       0.000000
     14 C11         51.1760    51.2290    18.8650 c2         1 MOL       0.000000
     15 C12         52.3600    52.2160    18.7270 c3         1 MOL       0.000000
     16 C13         53.0260    52.0590    17.3280 c3         1 MOL       0.000000
     17 C14         52.1080    51.6320    16.1960 c2         1 MOL       0.000000
     18 C15         52.7910    51.5090    14.8510 c3         1 MOL       0.000000
     19 N2          53.3980    51.9670    19.7660 n4         1 MOL       0.000000
     20 H2          53.8380    51.0640    19.6480 hn         1 MOL       0.000000
     21 H3          54.1290    52.6650    19.7440 hn         1 MOL       0.000000
     22 H4          53.0130    51.9870    20.7030 hn         1 MOL       0.000000
     23 H5          52.6280    56.8170    19.9420 ha         1 MOL       0.000000
     24 H6          53.5320    54.6260    19.6770 ha         1 MOL       0.000000
     25 H7          48.6320    52.8270    18.6840 hc         1 MOL       0.000000
     26 H8          49.1260    53.2820    17.0390 hc         1 MOL       0.000000
     27 H9          49.3180    50.7840    17.8410 hc         1 MOL       0.000000
     28 H10         50.2080    51.0920    15.5890 ha         1 MOL       0.000000
     29 H11         50.3370    48.6420    20.8560 hc         1 MOL       0.000000
     30 H12         49.9340    48.6660    19.1560 hc         1 MOL       0.000000
     31 H13         49.1450    49.7700    20.2570 hc         1 MOL       0.000000
     32 H14         51.9550    50.2320    20.4230 ha         1 MOL       0.000000
     33 H15         53.4560    53.0020    17.0630 hc         1 MOL       0.000000
     34 H16         53.7380    51.2670    17.4350 hc         1 MOL       0.000000
     35 H17         52.0770    51.2060    14.1140 hc         1 MOL       0.000000
     36 H18         53.5710    50.7790    14.9130 hc         1 MOL       0.000000
     37 H19         53.2080    52.4550    14.5750 hc         1 MOL       0.000000
@<TRIPOS>BOND
     1     1     2 2   
     2     1     5 1   
     3     3     1 1   
     4     4     3 1   
     5     5    23 1   
     6     6     5 2   
     7     6    24 1   
     8     7     6 1   
     9     8     3 1   
    10     8     7 2   
    11     9     8 1   
    12     9    25 1   
    13     9    26 1   
    14    10     9 1   
    15    10    14 1   
    16    10    27 1   
    17    11    10 1   
    18    11    28 1   
    19    12    29 1   
    20    12    30 1   
    21    12    31 1   
    22    13    12 1   
    23    13    32 1   
    24    14    13 2   
    25    15    14 1   
    26    15     7 1   
    27    15    19 1   
    28    16    15 1   
    29    16    33 1   
    30    16    34 1   
    31    17    11 2   
    32    17    16 1   
    33    18    17 1   
    34    18    35 1   
    35    18    36 1   
    36    18    37 1   
    37    19    22 1   
    38    20    19 1   
    39    21    19 1   
@<TRIPOS>SUBSTRUCTURE
     1 MOL         1 TEMP              0 ****  ****    0 ROOT
