MODEL 1
REMARK VINA RESULT:      -7.8      0.000      0.000
REMARK  1 active torsions:
REMARK  status: ('A' for Active; 'I' for Inactive)
REMARK    1  A    between atoms: C11_15  and  N1_16 
ROOT
ATOM      1  C   UNL d          53.181  51.214  14.521  0.00  0.00     0.245 A 
ATOM      2  O   UNL d          54.138  51.299  13.705  0.00  0.00    -0.268 OA
ATOM      3  N   UNL d          53.301  51.768  15.797  0.00  0.00    -0.327 N 
ATOM      4  H   UNL d          54.188  52.237  16.031  0.00  0.00     0.169 HD
ATOM      5  C1  UNL d          51.913  50.560  14.227  0.00  0.00     0.075 A 
ATOM      6  C2  UNL d          50.915  50.504  15.178  0.00  0.00     0.017 A 
ATOM      7  C3  UNL d          51.057  51.083  16.502  0.00  0.00     0.005 A 
ATOM      8  C4  UNL d          52.299  51.733  16.790  0.00  0.00     0.022 A 
ATOM      9  C5  UNL d          52.627  52.389  18.111  0.00  0.00     0.070 C 
ATOM     10  C6  UNL d          51.423  52.351  19.152  0.00  0.00     0.045 C 
ATOM     11  C7  UNL d          50.465  53.548  18.978  0.00  0.00    -0.015 C 
ATOM     12  C8  UNL d          51.089  49.988  21.244  0.00  0.00     0.036 C 
ATOM     13  C9  UNL d          50.473  50.077  19.881  0.00  0.00    -0.025 C 
ATOM     14  C10 UNL d          50.609  51.047  18.986  0.00  0.00    -0.036 C 
ATOM     15  C11 UNL d          49.912  51.012  17.605  0.00  0.00     0.179 C 
ATOM     16  C12 UNL d          48.943  52.223  17.465  0.00  0.00     0.082 C 
ATOM     17  C13 UNL d          49.340  53.485  18.210  0.00  0.00    -0.084 C 
ATOM     18  C14 UNL d          48.381  54.643  18.033  0.00  0.00     0.043 C 
ENDROOT
BRANCH  15  19
ATOM     19  N1  UNL d          49.121  49.762  17.428  0.00  0.00    -0.062 N 
ATOM     20  H11 UNL d          49.162  49.423  16.476  0.00  0.00     0.276 HD
ATOM     21  H12 UNL d          49.452  49.018  18.028  0.00  0.00     0.276 HD
ATOM     22  H13 UNL d          48.142  49.894  17.652  0.00  0.00     0.276 HD
ENDBRANCH  15  19
TORSDOF 1
ENDMDL
MODEL 2
REMARK VINA RESULT:      -7.3      3.021      4.915
REMARK  1 active torsions:
REMARK  status: ('A' for Active; 'I' for Inactive)
REMARK    1  A    between atoms: C11_15  and  N1_16 
ROOT
ATOM      1  C   UNL d          50.644  56.345  19.225  0.00  0.00     0.245 A 
ATOM      2  O   UNL d          50.101  57.476  19.346  0.00  0.00    -0.268 OA
ATOM      3  N   UNL d          49.907  55.267  18.727  0.00  0.00    -0.327 N 
ATOM      4  H   UNL d          48.924  55.440  18.471  0.00  0.00     0.169 HD
ATOM      5  C1  UNL d          52.029  56.062  19.574  0.00  0.00     0.075 A 
ATOM      6  C2  UNL d          52.548  54.793  19.417  0.00  0.00     0.017 A 
ATOM      7  C3  UNL d          51.768  53.683  18.901  0.00  0.00     0.005 A 
ATOM      8  C4  UNL d          50.408  53.960  18.549  0.00  0.00     0.022 A 
ATOM      9  C5  UNL d          49.447  52.932  17.998  0.00  0.00     0.070 C 
ATOM     10  C6  UNL d          50.110  51.501  17.779  0.00  0.00     0.045 C 
ATOM     11  C7  UNL d          50.784  51.378  16.396  0.00  0.00    -0.015 C 
ATOM     12  C8  UNL d          50.062  49.267  20.032  0.00  0.00     0.036 C 
ATOM     13  C9  UNL d          51.140  50.279  19.791  0.00  0.00    -0.025 C 
ATOM     14  C10 UNL d          51.176  51.229  18.865  0.00  0.00    -0.036 C 
ATOM     15  C11 UNL d          52.360  52.216  18.727  0.00  0.00     0.179 C 
ATOM     16  C12 UNL d          53.026  52.059  17.328  0.00  0.00     0.082 C 
ATOM     17  C13 UNL d          52.108  51.632  16.196  0.00  0.00    -0.084 C 
ATOM     18  C14 UNL d          52.791  51.509  14.851  0.00  0.00     0.043 C 
ENDROOT
BRANCH  15  19
ATOM     19  N1  UNL d          53.398  51.967  19.766  0.00  0.00    -0.062 N 
ATOM     20  H11 UNL d          53.838  51.064  19.648  0.00  0.00     0.276 HD
ATOM     21  H12 UNL d          54.129  52.665  19.744  0.00  0.00     0.276 HD
ATOM     22  H13 UNL d          53.013  51.987  20.703  0.00  0.00     0.276 HD
ENDBRANCH  15  19
TORSDOF 1
ENDMDL
MODEL 3
REMARK VINA RESULT:      -7.1      4.393      6.149
REMARK  1 active torsions:
REMARK  status: ('A' for Active; 'I' for Inactive)
REMARK    1  A    between atoms: C11_15  and  N1_16 
ROOT
ATOM      1  C   UNL d          51.529  51.859  19.929  0.00  0.00     0.245 A 
ATOM      2  O   UNL d          51.549  50.757  19.317  0.00  0.00    -0.268 OA
ATOM      3  N   UNL d          51.778  53.047  19.237  0.00  0.00    -0.327 N 
ATOM      4  H   UNL d          51.974  52.978  18.227  0.00  0.00     0.169 HD
ATOM      5  C1  UNL d          51.256  51.997  21.352  0.00  0.00     0.075 A 
ATOM      6  C2  UNL d          51.258  53.241  21.951  0.00  0.00     0.017 A 
ATOM      7  C3  UNL d          51.522  54.466  21.217  0.00  0.00     0.005 A 
ATOM      8  C4  UNL d          51.783  54.333  19.816  0.00  0.00     0.022 A 
ATOM      9  C5  UNL d          52.079  55.493  18.894  0.00  0.00     0.070 C 
ATOM     10  C6  UNL d          52.010  56.910  19.619  0.00  0.00     0.045 C 
ATOM     11  C7  UNL d          50.580  57.490  19.628  0.00  0.00    -0.015 C 
ATOM     12  C8  UNL d          54.570  58.249  20.930  0.00  0.00     0.036 C 
ATOM     13  C9  UNL d          53.565  57.371  21.612  0.00  0.00    -0.025 C 
ATOM     14  C10 UNL d          52.497  56.790  21.082  0.00  0.00    -0.036 C 
ATOM     15  C11 UNL d          51.535  55.901  21.905  0.00  0.00     0.179 C 
ATOM     16  C12 UNL d          50.105  56.518  21.906  0.00  0.00     0.082 C 
ATOM     17  C13 UNL d          49.719  57.309  20.669  0.00  0.00    -0.084 C 
ATOM     18  C14 UNL d          48.316  57.876  20.704  0.00  0.00     0.043 C 
ENDROOT
BRANCH  15  19
ATOM     19  N1  UNL d          51.988  55.776  23.318  0.00  0.00    -0.062 N 
ATOM     20  H11 UNL d          52.204  54.817  23.560  0.00  0.00     0.276 HD
ATOM     21  H12 UNL d          52.817  56.327  23.499  0.00  0.00     0.276 HD
ATOM     22  H13 UNL d          51.286  56.095  23.975  0.00  0.00     0.276 HD
ENDBRANCH  15  19
TORSDOF 1
ENDMDL
