@<TRIPOS>MOLECULE
MOL
   37    39     1     0     0
SMALL
No Charge or Current Charge


@<TRIPOS>ATOM
      1 C1          51.5290    51.8590    19.9290 c          1 MOL       0.000000
      2 O1          51.5490    50.7570    19.3170 o          1 MOL       0.000000
      3 N1          51.7780    53.0470    19.2370 n          1 MOL       0.000000
      4 H1          51.9740    52.9780    18.2270 hn         1 MOL       0.000000
      5 C2          51.2560    51.9970    21.3520 cc         1 MOL       0.000000
      6 C3          51.2580    53.2410    21.9510 cd         1 MOL       0.000000
      7 C4          51.5220    54.4660    21.2170 cd         1 MOL       0.000000
      8 C5          51.7830    54.3330    19.8160 cc         1 MOL       0.000000
      9 C6          52.0790    55.4930    18.8940 c3         1 MOL       0.000000
     10 C7          52.0100    56.9100    19.6190 c3         1 MOL       0.000000
     11 C8          50.5800    57.4900    19.6280 c2         1 MOL       0.000000
     12 C9          54.5700    58.2490    20.9300 c3         1 MOL       0.000000
     13 C10         53.5650    57.3710    21.6120 c2         1 MOL       0.000000
     14 C11         52.4970    56.7900    21.0820 c2         1 MOL       0.000000
     15 C12         51.5350    55.9010    21.9050 c3         1 MOL       0.000000
     16 C13         50.1050    56.5180    21.9060 c3         1 MOL       0.000000
     17 C14         49.7190    57.3090    20.6690 c2         1 MOL       0.000000
     18 C15         48.3160    57.8760    20.7040 c3         1 MOL       0.000000
     19 N2          51.9880    55.7760    23.3180 n4         1 MOL       0.000000
     20 H2          52.2040    54.8170    23.5600 hn         1 MOL       0.000000
     21 H3          52.8170    56.3270    23.4990 hn         1 MOL       0.000000
     22 H4          51.2860    56.0950    23.9750 hn         1 MOL       0.000000
     23 H5          51.0590    51.1570    21.9190 ha         1 MOL       0.000000
     24 H6          51.0640    53.3030    22.9630 ha         1 MOL       0.000000
     25 H7          53.0620    55.3650    18.4920 hc         1 MOL       0.000000
     26 H8          51.3280    55.4910    18.1320 hc         1 MOL       0.000000
     27 H9          52.6440    57.5700    19.0650 hc         1 MOL       0.000000
     28 H10         50.2630    58.0370    18.8130 ha         1 MOL       0.000000
     29 H11         55.3120    58.5580    21.6370 hc         1 MOL       0.000000
     30 H12         54.0780    59.1110    20.5300 hc         1 MOL       0.000000
     31 H13         55.0380    57.7050    20.1360 hc         1 MOL       0.000000
     32 H14         53.7230    57.1970    22.6170 ha         1 MOL       0.000000
     33 H15         49.4030    55.7170    22.0140 hc         1 MOL       0.000000
     34 H16         50.0960    57.2220    22.7120 hc         1 MOL       0.000000
     35 H17         48.1270    58.4160    19.8000 hc         1 MOL       0.000000
     36 H18         48.2190    58.5360    21.5400 hc         1 MOL       0.000000
     37 H19         47.6110    57.0770    20.7970 hc         1 MOL       0.000000
@<TRIPOS>BOND
     1     1     5 1   
     2     2     1 2   
     3     3     8 1   
     4     3     1 1   
     5     4     3 1   
     6     5     6 2   
     7     5    23 1   
     8     6    24 1   
     9     7    15 1   
    10     7     6 1   
    11     8     7 2   
    12     9    10 1   
    13     9     8 1   
    14     9    25 1   
    15     9    26 1   
    16    10    11 1   
    17    10    14 1   
    18    10    27 1   
    19    11    17 2   
    20    11    28 1   
    21    12    13 1   
    22    12    29 1   
    23    12    30 1   
    24    12    31 1   
    25    13    32 1   
    26    14    13 2   
    27    14    15 1   
    28    15    16 1   
    29    15    19 1   
    30    16    33 1   
    31    16    34 1   
    32    17    18 1   
    33    17    16 1   
    34    18    35 1   
    35    18    36 1   
    36    18    37 1   
    37    19    21 1   
    38    19    20 1   
    39    19    22 1   
@<TRIPOS>SUBSTRUCTURE
     1 MOL         1 TEMP              0 ****  ****    0 ROOT
