@<TRIPOS>MOLECULE
MOL
   27    28     1     0     0
SMALL
No Charge or Current Charge


@<TRIPOS>ATOM
      1 S1          58.7730    28.1750    27.9430 sy         1 MOL       0.000000
      2 O1          60.1350    28.3920    28.3460 o          1 MOL       0.000000
      3 O2          57.8860    28.6360    28.9620 o          1 MOL       0.000000
      4 N1          58.4990    29.0850    26.4870 nh         1 MOL       0.000000
      5 H1          57.7570    28.8030    25.8310 hn         1 MOL       0.000000
      6 C1          59.3010    30.2130    26.2110 ca         1 MOL       0.000000
      7 C2          59.2140    31.3550    27.0400 ca         1 MOL       0.000000
      8 C3          60.0120    32.4860    26.7630 ca         1 MOL       0.000000
      9 C4          60.8990    32.4770    25.6570 ca         1 MOL       0.000000
     10 C5          60.9920    31.3320    24.8230 ca         1 MOL       0.000000
     11 Cl1         61.8760    33.8810    25.3180 cl         1 MOL       0.000000
     12 C6          60.1900    30.1980    25.0970 ca         1 MOL       0.000000
     13 C7          58.4990    26.3680    27.6430 cc         1 MOL       0.000000
     14 C8          58.4850    25.7100    26.4050 cd         1 MOL       0.000000
     15 S2          58.2460    24.3380    26.6430 ss         1 MOL       0.000000
     16 C9          58.1060    24.1720    28.0240 cd         1 MOL       0.000000
     17 C10         58.2650    25.4120    28.6350 cc         1 MOL       0.000000
     18 C11         58.6840    26.3180    25.0690 c          1 MOL       0.000000
     19 O3          57.7170    26.2940    24.1580 o          1 MOL       0.000000
     20 O4          59.7570    26.8520    24.8100 oh         1 MOL       0.000000
     21 H2          58.5690    31.3620    27.8450 ha         1 MOL       0.000000
     22 H3          59.9500    33.3210    27.3670 ha         1 MOL       0.000000
     23 H4          61.6410    31.3260    24.0210 ha         1 MOL       0.000000
     24 H5          60.2490    29.3640    24.4920 ha         1 MOL       0.000000
     25 H6          57.9170    23.2810    28.5080 h4         1 MOL       0.000000
     26 H7          58.2180    25.5950    29.6500 ha         1 MOL       0.000000
     27 H8          60.4390    26.8690    25.4520 ho         1 MOL       0.000000
@<TRIPOS>BOND
     1     1     2 2   
     2     1     3 2   
     3     4     1 1   
     4     5     4 1   
     5     6     4 1   
     6     6     7 ar  
     7     7    21 1   
     8     8     7 ar  
     9     8    22 1   
    10     9     8 ar  
    11    10    12 ar  
    12    10     9 ar  
    13    10    23 1   
    14    11     9 1   
    15    12     6 ar  
    16    12    24 1   
    17    13     1 1   
    18    13    17 1   
    19    14    15 1   
    20    14    13 2   
    21    15    16 1   
    22    16    17 2   
    23    16    25 1   
    24    17    26 1   
    25    18    14 1   
    26    19    18 2   
    27    20    18 1   
    28    20    27 1   
@<TRIPOS>SUBSTRUCTURE
     1 MOL         1 TEMP              0 ****  ****    0 ROOT
