@<TRIPOS>MOLECULE
MOL
   27    28     1     0     0
SMALL
No Charge or Current Charge


@<TRIPOS>ATOM
      1 S1          59.4940    28.9520    25.3130 sy         1 MOL       0.000000
      2 O1          60.3110    28.5550    24.2010 o          1 MOL       0.000000
      3 O2          58.1160    28.9070    24.9420 o          1 MOL       0.000000
      4 N1          59.7770    27.8260    26.6070 nh         1 MOL       0.000000
      5 H1          60.6470    27.8750    27.1560 hn         1 MOL       0.000000
      6 C1          58.8060    26.8440    26.9000 ca         1 MOL       0.000000
      7 C2          57.9250    27.0330    27.9890 ca         1 MOL       0.000000
      8 C3          56.9560    26.0500    28.2870 ca         1 MOL       0.000000
      9 C4          56.8670    24.8780    27.4950 ca         1 MOL       0.000000
     10 C5          57.7470    24.6850    26.3990 ca         1 MOL       0.000000
     11 Cl1         55.6710    23.6660    27.8740 cl         1 MOL       0.000000
     12 C6          58.7220    25.6680    26.1010 ca         1 MOL       0.000000
     13 C7          59.9490    30.6710    25.8330 cc         1 MOL       0.000000
     14 C8          59.8110    31.2310    27.1100 cd         1 MOL       0.000000
     15 S2          60.2860    32.5600    27.0570 ss         1 MOL       0.000000
     16 C9          60.7010    32.8030    25.7440 cd         1 MOL       0.000000
     17 C10         60.4990    31.6470    24.9980 cc         1 MOL       0.000000
     18 C11         59.2690    30.5710    28.3200 c          1 MOL       0.000000
     19 O3          60.0090    29.7210    29.0230 oh         1 MOL       0.000000
     20 O4          58.1200    30.8210    28.6730 o          1 MOL       0.000000
     21 H2          57.9900    27.8870    28.5650 ha         1 MOL       0.000000
     22 H3          56.3120    26.1850    29.0820 ha         1 MOL       0.000000
     23 H4          57.6770    23.8320    25.8220 ha         1 MOL       0.000000
     24 H5          59.3690    25.5330    25.3080 ha         1 MOL       0.000000
     25 H6          61.0910    33.6900    25.3890 h4         1 MOL       0.000000
     26 H7          60.7180    31.5300    23.9960 ha         1 MOL       0.000000
     27 H8          60.8860    29.5300    28.7540 ho         1 MOL       0.000000
@<TRIPOS>BOND
     1     1    13 1   
     2     1     4 1   
     3     2     1 2   
     4     3     1 2   
     5     4     6 1   
     6     4     5 1   
     7     6     7 ar  
     8     7     8 ar  
     9     7    21 1   
    10     8    22 1   
    11     9    11 1   
    12     9     8 ar  
    13    10     9 ar  
    14    10    23 1   
    15    12    10 ar  
    16    12     6 ar  
    17    12    24 1   
    18    13    14 2   
    19    14    18 1   
    20    15    14 1   
    21    16    15 1   
    22    16    25 1   
    23    17    16 2   
    24    17    13 1   
    25    17    26 1   
    26    18    20 2   
    27    18    19 1   
    28    19    27 1   
@<TRIPOS>SUBSTRUCTURE
     1 MOL         1 TEMP              0 ****  ****    0 ROOT
