@<TRIPOS>MOLECULE
MOL
   27    28     1     0     0
SMALL
No Charge or Current Charge


@<TRIPOS>ATOM
      1 S1          59.2520    27.7350    25.2130 sy         1 MOL       0.000000
      2 O1          60.3050    28.0650    24.2940 o          1 MOL       0.000000
      3 O2          57.9850    27.8800    24.5710 o          1 MOL       0.000000
      4 N1          59.4660    26.0770    25.6920 nh         1 MOL       0.000000
      5 H1          60.3420    25.5820    25.4690 hn         1 MOL       0.000000
      6 C1          58.4320    25.4140    26.3870 ca         1 MOL       0.000000
      7 C2          58.5530    25.1940    27.7780 ca         1 MOL       0.000000
      8 C3          57.5220    24.5270    28.4760 ca         1 MOL       0.000000
      9 C4          56.3680    24.0810    27.7820 ca         1 MOL       0.000000
     10 C5          56.2410    24.3030    26.3870 ca         1 MOL       0.000000
     11 Cl1         55.1030    23.2520    28.6500 cl         1 MOL       0.000000
     12 C6          57.2750    24.9680    25.6850 ca         1 MOL       0.000000
     13 C7          59.3420    28.8550    26.6850 cc         1 MOL       0.000000
     14 C8          59.3470    30.2570    26.6810 cd         1 MOL       0.000000
     15 S2          59.4210    30.6970    28.0200 ss         1 MOL       0.000000
     16 C9          59.4730    29.5590    28.8320 cd         1 MOL       0.000000
     17 C10         59.4200    28.4340    28.0160 cc         1 MOL       0.000000
     18 C11         59.2830    31.1450    25.4970 c          1 MOL       0.000000
     19 O3          60.2510    32.0210    25.2490 oh         1 MOL       0.000000
     20 O4          58.3220    31.0620    24.7390 o          1 MOL       0.000000
     21 H2          59.3920    25.5200    28.2820 ha         1 MOL       0.000000
     22 H3          57.6080    24.3640    29.4910 ha         1 MOL       0.000000
     23 H4          55.3980    23.9810    25.8860 ha         1 MOL       0.000000
     24 H5          57.1910    25.1290    24.6690 ha         1 MOL       0.000000
     25 H6          59.5390    29.5550    29.8620 h4         1 MOL       0.000000
     26 H7          59.4360    27.4540    28.3380 ha         1 MOL       0.000000
     27 H8          60.9850    32.0840    25.8280 ho         1 MOL       0.000000
@<TRIPOS>BOND
     1     1     4 1   
     2     1    13 1   
     3     2     1 2   
     4     3     1 2   
     5     4     6 1   
     6     5     4 1   
     7     6     7 ar  
     8     7     8 ar  
     9     7    21 1   
    10     8    22 1   
    11     9     8 ar  
    12     9    11 1   
    13    10     9 ar  
    14    10    23 1   
    15    12    10 ar  
    16    12     6 ar  
    17    12    24 1   
    18    13    17 1   
    19    14    13 2   
    20    14    15 1   
    21    15    16 1   
    22    16    25 1   
    23    17    16 2   
    24    17    26 1   
    25    18    14 1   
    26    19    18 1   
    27    19    27 1   
    28    20    18 2   
@<TRIPOS>SUBSTRUCTURE
     1 MOL         1 TEMP              0 ****  ****    0 ROOT
