@<TRIPOS>MOLECULE
MOL
   27    28     1     0     0
SMALL
No Charge or Current Charge


@<TRIPOS>ATOM
      1 N1          -2.0980     0.8590    26.1760 na         1 MOL       0.000000
      2 H1          -1.3990     0.9090    26.9310 hn         1 MOL       0.000000
      3 C1          -3.4010     1.0420    26.3090 cc         1 MOL       0.000000
      4 N2          -3.9970     0.9220    25.2420 nd         1 MOL       0.000000
      5 C2          -3.1190     0.6220    24.1580 cd         1 MOL       0.000000
      6 C3          -3.3180     0.3860    22.6970 c          1 MOL       0.000000
      7 N3          -2.1570     0.1140    21.9620 n          1 MOL       0.000000
      8 H2          -2.2460    -0.0550    20.9500 hn         1 MOL       0.000000
      9 N4          -0.7880     0.0580    22.5780 n          1 MOL       0.000000
     10 H3           0.0160    -0.1470    21.9670 hn         1 MOL       0.000000
     11 C4          -0.5470     0.2720    23.9480 c          1 MOL       0.000000
     12 O1           0.6010     0.2280    24.4810 o          1 MOL       0.000000
     13 C5          -1.8280     0.5760    24.7790 cc         1 MOL       0.000000
     14 O2          -4.4440     0.4340    22.2080 o          1 MOL       0.000000
     15 C6          -4.0500     1.3670    27.6560 c3         1 MOL       0.000000
     16 C7          -3.1410     1.2890    28.9250 c3         1 MOL       0.000000
     17 C8          -2.7190     2.7350    29.3450 c3         1 MOL       0.000000
     18 C9          -2.8540     2.9860    30.8670 c3         1 MOL       0.000000
     19 H4          -4.8590     0.6810    27.7970 hc         1 MOL       0.000000
     20 H5          -4.3340     2.3960    27.5840 hc         1 MOL       0.000000
     21 H6          -2.2680     0.7110    28.7050 hc         1 MOL       0.000000
     22 H7          -3.6790     0.8250    29.7250 hc         1 MOL       0.000000
     23 H8          -3.3400     3.4360    28.8270 hc         1 MOL       0.000000
     24 H9          -1.6860     2.8540    29.0910 hc         1 MOL       0.000000
     25 H10         -3.8780     2.8750    31.1570 hc         1 MOL       0.000000
     26 H11         -2.5240     3.9780    31.0960 hc         1 MOL       0.000000
     27 H12         -2.2540     2.2790    31.4000 hc         1 MOL       0.000000
@<TRIPOS>BOND
     1     1     3 1   
     2     1     2 1   
     3     3    15 1   
     4     4     3 2   
     5     5    13 2   
     6     5     4 1   
     7     6     5 1   
     8     7     9 1   
     9     7     6 1   
    10     8     7 1   
    11     9    11 1   
    12    10     9 1   
    13    11    12 2   
    14    11    13 1   
    15    13     1 1   
    16    14     6 2   
    17    15    16 1   
    18    15    19 1   
    19    15    20 1   
    20    16    17 1   
    21    16    21 1   
    22    16    22 1   
    23    17    18 1   
    24    17    23 1   
    25    17    24 1   
    26    18    25 1   
    27    18    26 1   
    28    18    27 1   
@<TRIPOS>SUBSTRUCTURE
     1 MOL         1 TEMP              0 ****  ****    0 ROOT
