@<TRIPOS>MOLECULE
MOL
   27    28     1     0     0
SMALL
No Charge or Current Charge


@<TRIPOS>ATOM
      1 N1          -4.1400     2.4100    26.1150 na         1 MOL       0.000000
      2 H1          -4.3780     3.3700    25.8260 hn         1 MOL       0.000000
      3 C1          -4.0580     1.9700    27.3580 cc         1 MOL       0.000000
      4 N2          -3.7540     0.7810    27.4100 nd         1 MOL       0.000000
      5 C2          -3.5770     0.2070    26.1160 cd         1 MOL       0.000000
      6 C3          -3.2180    -1.1580    25.6260 c          1 MOL       0.000000
      7 N3          -3.1490    -1.3060    24.2350 n          1 MOL       0.000000
      8 H2          -2.9050    -2.2300    23.8530 hn         1 MOL       0.000000
      9 N4          -3.4130    -0.1810    23.2750 n          1 MOL       0.000000
     10 H3          -3.3420    -0.3730    22.2650 hn         1 MOL       0.000000
     11 C4          -3.7540     1.1220    23.6840 c          1 MOL       0.000000
     12 O1          -3.9790     2.0790    22.8870 o          1 MOL       0.000000
     13 C5          -3.8350     1.3020    25.2280 cc         1 MOL       0.000000
     14 O2          -3.0040    -2.0670    26.4250 o          1 MOL       0.000000
     15 C6          -4.3210     2.8710    28.5670 c3         1 MOL       0.000000
     16 C7          -3.0820     3.3250    29.4030 c3         1 MOL       0.000000
     17 C8          -3.5730     4.0080    30.7220 c3         1 MOL       0.000000
     18 C9          -2.8660     3.4610    31.9860 c3         1 MOL       0.000000
     19 H4          -4.9770     2.3420    29.2260 hc         1 MOL       0.000000
     20 H5          -4.7220     3.7740    28.1560 hc         1 MOL       0.000000
     21 H6          -2.5020     4.0210    28.8340 hc         1 MOL       0.000000
     22 H7          -2.4790     2.4740    29.6420 hc         1 MOL       0.000000
     23 H8          -4.6250     3.8410    30.8210 hc         1 MOL       0.000000
     24 H9          -3.3380     5.0500    30.6500 hc         1 MOL       0.000000
     25 H10         -3.0790     2.4180    32.0910 hc         1 MOL       0.000000
     26 H11         -3.2210     3.9860    32.8480 hc         1 MOL       0.000000
     27 H12         -1.8090     3.6020    31.8930 hc         1 MOL       0.000000
@<TRIPOS>BOND
     1     1     3 1   
     2     2     1 1   
     3     3     4 2   
     4     3    15 1   
     5     5     4 1   
     6     6     5 1   
     7     6    14 2   
     8     7     6 1   
     9     8     7 1   
    10     9    11 1   
    11     9     7 1   
    12    10     9 1   
    13    11    13 1   
    14    12    11 2   
    15    13     1 1   
    16    13     5 2   
    17    15    16 1   
    18    15    19 1   
    19    15    20 1   
    20    16    17 1   
    21    16    21 1   
    22    16    22 1   
    23    17    18 1   
    24    17    23 1   
    25    17    24 1   
    26    18    25 1   
    27    18    26 1   
    28    18    27 1   
@<TRIPOS>SUBSTRUCTURE
     1 MOL         1 TEMP              0 ****  ****    0 ROOT
