@<TRIPOS>MOLECULE
MOL
   27    28     1     0     0
SMALL
No Charge or Current Charge


@<TRIPOS>ATOM
      1 N1          -4.3860     2.0280    27.0080 na         1 MOL       0.000000
      2 H1          -4.9800     2.5700    26.3640 hn         1 MOL       0.000000
      3 C1          -4.2010     2.2780    28.2920 cc         1 MOL       0.000000
      4 N2          -3.4390     1.4690    28.8170 nd         1 MOL       0.000000
      5 C2          -2.9710     0.4860    27.8960 cd         1 MOL       0.000000
      6 C3          -2.0560    -0.6900    28.0100 c          1 MOL       0.000000
      7 N3          -1.8550    -1.4190    26.8310 n          1 MOL       0.000000
      8 H2          -1.2320    -2.2390    26.8630 hn         1 MOL       0.000000
      9 N4          -2.5030    -1.0640    25.5230 n          1 MOL       0.000000
     10 H3          -2.3030    -1.6520    24.7020 hn         1 MOL       0.000000
     11 C4          -3.3710     0.0340    25.3630 c          1 MOL       0.000000
     12 O1          -3.9240     0.3460    24.2670 o          1 MOL       0.000000
     13 C5          -3.6050     0.8540    26.6650 cc         1 MOL       0.000000
     14 O2          -1.5330    -0.9670    29.0860 o          1 MOL       0.000000
     15 C6          -4.8780     3.4510    29.0060 c3         1 MOL       0.000000
     16 C7          -3.9590     4.4220    29.8150 c3         1 MOL       0.000000
     17 C8          -4.0640     4.0810    31.3380 c3         1 MOL       0.000000
     18 C9          -2.7670     3.4580    31.9090 c3         1 MOL       0.000000
     19 H4          -5.5940     3.0420    29.6880 hc         1 MOL       0.000000
     20 H5          -5.2890     4.0510    28.2210 hc         1 MOL       0.000000
     21 H6          -4.2740     5.4320    29.6520 hc         1 MOL       0.000000
     22 H7          -2.9450     4.3110    29.4910 hc         1 MOL       0.000000
     23 H8          -4.8660     3.3860    31.4770 hc         1 MOL       0.000000
     24 H9          -4.2350     4.9990    31.8600 hc         1 MOL       0.000000
     25 H10         -2.5640     2.5350    31.4080 hc         1 MOL       0.000000
     26 H11         -2.8900     3.2760    32.9560 hc         1 MOL       0.000000
     27 H12         -1.9510     4.1330    31.7580 hc         1 MOL       0.000000
@<TRIPOS>BOND
     1     1     3 1   
     2     2     1 1   
     3     3     4 2   
     4     3    15 1   
     5     5     6 1   
     6     5     4 1   
     7     6    14 2   
     8     7     8 1   
     9     7     6 1   
    10     9     7 1   
    11    10     9 1   
    12    11     9 1   
    13    11    13 1   
    14    12    11 2   
    15    13     1 1   
    16    13     5 2   
    17    15    16 1   
    18    15    19 1   
    19    15    20 1   
    20    16    17 1   
    21    16    21 1   
    22    16    22 1   
    23    17    18 1   
    24    17    23 1   
    25    17    24 1   
    26    18    25 1   
    27    18    26 1   
    28    18    27 1   
@<TRIPOS>SUBSTRUCTURE
     1 MOL         1 TEMP              0 ****  ****    0 ROOT
