@<TRIPOS>MOLECULE
MOL
   34    36     1     0     0
SMALL
No Charge or Current Charge


@<TRIPOS>ATOM
      1 C1          22.5280     1.0350    31.8960 c3         1 MOL       0.000000
      2 C2          22.7350     2.5320    32.2290 c3         1 MOL       0.000000
      3 C3          23.3850     2.5470    33.6260 c3         1 MOL       0.000000
      4 C4          22.7980     1.3180    34.3700 cx         1 MOL       0.000000
      5 C5          22.2140     0.3520    33.2600 cx         1 MOL       0.000000
      6 C6          21.2780     0.9040    34.2940 cx         1 MOL       0.000000
      7 N1          23.5910     0.6500    35.4370 n          1 MOL       0.000000
      8 C7          23.5100     1.1270    36.6890 c          1 MOL       0.000000
      9 O1          22.8130     2.1120    36.9470 o          1 MOL       0.000000
     10 N2          24.1730     0.5500    37.6790 n          1 MOL       0.000000
     11 C8          24.9540    -0.5150    37.4950 c          1 MOL       0.000000
     12 H1          24.0830     0.9390    38.6280 hn         1 MOL       0.000000
     13 O2          25.5570    -1.0330    38.4190 o          1 MOL       0.000000
     14 C9          25.0860    -1.0750    36.1210 cc         1 MOL       0.000000
     15 C10         24.3610    -0.4240    35.1480 cd         1 MOL       0.000000
     16 C11         25.9680    -2.2800    35.8510 c3         1 MOL       0.000000
     17 O3          21.4880     3.2740    32.2030 oh         1 MOL       0.000000
     18 H2          20.8080     2.7840    31.6040 ho         1 MOL       0.000000
     19 C12         23.6920     0.3580    31.1240 c3         1 MOL       0.000000
     20 O4          23.3980    -1.0190    30.9200 oh         1 MOL       0.000000
     21 H3          22.4180    -1.2020    31.1740 ho         1 MOL       0.000000
     22 H4          21.7250     0.9260    31.1970 hc         1 MOL       0.000000
     23 H5          23.3530     3.0150    31.5010 h1         1 MOL       0.000000
     24 H6          23.1380     3.4500    34.1440 hc         1 MOL       0.000000
     25 H7          24.4530     2.5030    33.5680 hc         1 MOL       0.000000
     26 H8          22.2520    -0.6530    32.8950 hc         1 MOL       0.000000
     27 H9          20.8680     0.2540    35.0380 hc         1 MOL       0.000000
     28 H10         20.3580     1.4490    34.2520 hc         1 MOL       0.000000
     29 H11         24.4060    -0.7640    34.1750 h4         1 MOL       0.000000
     30 H12         25.9280    -2.5250    34.8100 hc         1 MOL       0.000000
     31 H13         25.6210    -3.1120    36.4270 hc         1 MOL       0.000000
     32 H14         26.9770    -2.0520    36.1250 hc         1 MOL       0.000000
     33 H15         23.8170     0.8390    30.1760 h1         1 MOL       0.000000
     34 H16         24.5930     0.4460    31.6940 h1         1 MOL       0.000000
@<TRIPOS>BOND
     1     1     2 1   
     2     1    22 1   
     3     2     3 1   
     4     2    23 1   
     5     3     4 1   
     6     3    24 1   
     7     3    25 1   
     8     4     5 1   
     9     4     7 1   
    10     5     1 1   
    11     5     6 1   
    12     5    26 1   
    13     6     4 1   
    14     6    27 1   
    15     6    28 1   
    16     7     8 1   
    17     8     9 2   
    18     8    10 1   
    19    10    12 1   
    20    11    10 1   
    21    11    13 2   
    22    14    11 1   
    23    15     7 1   
    24    15    14 2   
    25    15    29 1   
    26    16    14 1   
    27    16    30 1   
    28    16    31 1   
    29    16    32 1   
    30    17     2 1   
    31    18    17 1   
    32    19     1 1   
    33    19    33 1   
    34    19    34 1   
    35    20    19 1   
    36    20    21 1   
@<TRIPOS>SUBSTRUCTURE
     1 MOL         1 TEMP              0 ****  ****    0 ROOT
