@<TRIPOS>MOLECULE
MOL
   34    36     1     0     0
SMALL
No Charge or Current Charge


@<TRIPOS>ATOM
      1 C1          23.8640     1.1960    31.9220 c3         1 MOL       0.000000
      2 C2          23.8550    -0.3490    31.8280 c3         1 MOL       0.000000
      3 C3          23.7170    -0.8380    33.2830 c3         1 MOL       0.000000
      4 C4          24.4590     0.2140    34.1470 cx         1 MOL       0.000000
      5 C5          24.5860     1.5200    33.2620 cx         1 MOL       0.000000
      6 C6          25.8420     0.8540    33.7370 cx         1 MOL       0.000000
      7 N1          24.0420     0.4430    35.5570 n          1 MOL       0.000000
      8 C7          24.6560    -0.2520    36.5270 c          1 MOL       0.000000
      9 O1          25.5310    -1.0780    36.2580 o          1 MOL       0.000000
     10 N2          24.3410    -0.0640    37.8000 n          1 MOL       0.000000
     11 C8          23.4060     0.8040    38.1860 c          1 MOL       0.000000
     12 H1          24.8360    -0.6090    38.5190 hn         1 MOL       0.000000
     13 O2          23.1290     0.9640    39.3630 o          1 MOL       0.000000
     14 C9          22.6860     1.5910    37.1460 cc         1 MOL       0.000000
     15 C10         23.0760     1.3440    35.8480 cd         1 MOL       0.000000
     16 C11         21.6070     2.5870    37.5280 c3         1 MOL       0.000000
     17 O3          25.0550    -0.8640    31.1940 oh         1 MOL       0.000000
     18 H2          25.3540    -0.2190    30.4480 ho         1 MOL       0.000000
     19 C12         22.4750     1.8780    31.7910 c3         1 MOL       0.000000
     20 O4          21.6350     1.1000    30.9460 oh         1 MOL       0.000000
     21 H3          22.0620     1.0250    30.0120 ho         1 MOL       0.000000
     22 H4          24.3780     1.6090    31.0790 hc         1 MOL       0.000000
     23 H5          23.0520    -0.7010    31.2140 h1         1 MOL       0.000000
     24 H6          24.1680    -1.8010    33.3980 hc         1 MOL       0.000000
     25 H7          22.6920    -0.9370    33.5720 hc         1 MOL       0.000000
     26 H8          24.3770     2.5690    33.2510 hc         1 MOL       0.000000
     27 H9          26.4460     1.3310    34.4800 hc         1 MOL       0.000000
     28 H10         26.7200     0.4840    33.2500 hc         1 MOL       0.000000
     29 H11         22.6200     1.8590    35.0790 h4         1 MOL       0.000000
     30 H12         21.2150     3.0450    36.6440 hc         1 MOL       0.000000
     31 H13         22.0250     3.3390    38.1640 hc         1 MOL       0.000000
     32 H14         20.8200     2.0790    38.0450 hc         1 MOL       0.000000
     33 H15         22.0270     1.9600    32.7590 h1         1 MOL       0.000000
     34 H16         22.5980     2.8530    31.3670 h1         1 MOL       0.000000
@<TRIPOS>BOND
     1     1     2 1   
     2     1    22 1   
     3     2     3 1   
     4     2    23 1   
     5     3     4 1   
     6     3    24 1   
     7     3    25 1   
     8     4     5 1   
     9     4     7 1   
    10     5     1 1   
    11     5     6 1   
    12     5    26 1   
    13     6     4 1   
    14     6    27 1   
    15     6    28 1   
    16     7    15 1   
    17     7     8 1   
    18     8    10 1   
    19     9     8 2   
    20    10    11 1   
    21    10    12 1   
    22    11    13 2   
    23    14    16 1   
    24    14    11 1   
    25    15    14 2   
    26    15    29 1   
    27    16    30 1   
    28    16    31 1   
    29    16    32 1   
    30    17     2 1   
    31    18    17 1   
    32    19     1 1   
    33    19    33 1   
    34    19    34 1   
    35    20    19 1   
    36    21    20 1   
@<TRIPOS>SUBSTRUCTURE
     1 MOL         1 TEMP              0 ****  ****    0 ROOT
