@<TRIPOS>MOLECULE
MOL
   34    36     1     0     0
SMALL
No Charge or Current Charge


@<TRIPOS>ATOM
      1 C1          24.8540    -1.1270    32.4630 c3         1 MOL       0.000000
      2 C2          25.8680     0.0350    32.3290 c3         1 MOL       0.000000
      3 C3          25.7360     0.8360    33.6390 c3         1 MOL       0.000000
      4 C4          24.2470     0.7090    34.0550 cx         1 MOL       0.000000
      5 C5          23.6620    -0.5370    33.2740 cx         1 MOL       0.000000
      6 C6          23.0490     0.8090    33.0320 cx         1 MOL       0.000000
      7 N1          23.8690     0.7900    35.4920 n          1 MOL       0.000000
      8 C7          24.5490     0.0440    36.3750 c          1 MOL       0.000000
      9 O1          25.4530    -0.7100    36.0050 o          1 MOL       0.000000
     10 N2          24.2700     0.1010    37.6690 n          1 MOL       0.000000
     11 C8          23.3090     0.8830    38.1610 c          1 MOL       0.000000
     12 H1          24.8160    -0.4800    38.3190 hn         1 MOL       0.000000
     13 O2          23.0660     0.9230    39.3550 o          1 MOL       0.000000
     14 C9          22.5170     1.7220    37.2190 cc         1 MOL       0.000000
     15 C10         22.8720     1.6110    35.8930 cd         1 MOL       0.000000
     16 C11         21.4050     2.6230    37.7230 c3         1 MOL       0.000000
     17 O3          25.6050     0.8560    31.1610 oh         1 MOL       0.000000
     18 H2          25.2590     1.7790    31.4600 ho         1 MOL       0.000000
     19 C12         25.4220    -2.4380    33.0700 c3         1 MOL       0.000000
     20 O4          24.6740    -2.7970    34.2250 oh         1 MOL       0.000000
     21 H3          25.2070    -2.5490    35.0700 ho         1 MOL       0.000000
     22 H4          24.5530    -1.4620    31.4920 hc         1 MOL       0.000000
     23 H5          26.8650    -0.3270    32.1860 h1         1 MOL       0.000000
     24 H6          25.9930     1.8620    33.4770 hc         1 MOL       0.000000
     25 H7          26.3930     0.4660    34.3980 hc         1 MOL       0.000000
     26 H8          23.1460    -1.4650    33.4080 hc         1 MOL       0.000000
     27 H9          22.0620     1.0140    33.3900 hc         1 MOL       0.000000
     28 H10         22.8620     1.3970    32.1580 hc         1 MOL       0.000000
     29 H11         22.3650     2.1680    35.1880 h4         1 MOL       0.000000
     30 H12         20.9610     3.1380    36.8970 hc         1 MOL       0.000000
     31 H13         21.8080     3.3350    38.4130 hc         1 MOL       0.000000
     32 H14         20.6620     2.0310    38.2150 hc         1 MOL       0.000000
     33 H15         26.4460    -2.2890    33.3420 h1         1 MOL       0.000000
     34 H16         25.3520    -3.2220    32.3460 h1         1 MOL       0.000000
@<TRIPOS>BOND
     1     1     2 1   
     2     1    19 1   
     3     1    22 1   
     4     2     3 1   
     5     2    23 1   
     6     3     4 1   
     7     3    24 1   
     8     3    25 1   
     9     4     5 1   
    10     4     7 1   
    11     5     1 1   
    12     5    26 1   
    13     6     5 1   
    14     6     4 1   
    15     6    27 1   
    16     6    28 1   
    17     7    15 1   
    18     7     8 1   
    19     8    10 1   
    20     9     8 2   
    21    10    11 1   
    22    10    12 1   
    23    11    13 2   
    24    14    16 1   
    25    14    11 1   
    26    15    14 2   
    27    15    29 1   
    28    16    30 1   
    29    16    31 1   
    30    16    32 1   
    31    17    18 1   
    32    17     2 1   
    33    19    20 1   
    34    19    33 1   
    35    19    34 1   
    36    20    21 1   
@<TRIPOS>SUBSTRUCTURE
     1 MOL         1 TEMP              0 ****  ****    0 ROOT
