MODEL 1
REMARK VINA RESULT:      -6.7      0.000      0.000
REMARK  3 active torsions:
REMARK  status: ('A' for Active; 'I' for Inactive)
REMARK    1  A    between atoms: C4_5  and  C5_6 
REMARK    2  A    between atoms: C4_5  and  C8_9 
REMARK    3  A    between atoms: C11_12  and  C12_13 
ROOT
ATOM      1  C   UNL d          74.427  44.950  50.280  0.00  0.00     0.013 A 
ATOM      2  C7  UNL d          74.596  43.631  50.722  0.00  0.00     0.009 A 
ATOM      3  C8  UNL d          73.536  42.998  51.399  0.00  0.00    -0.044 A 
ATOM      4  C9  UNL d          72.304  43.704  51.622  0.00  0.00     0.009 A 
ATOM      5  C10 UNL d          72.136  45.048  51.170  0.00  0.00     0.013 A 
ATOM      6  C11 UNL d          73.228  45.709  50.474  0.00  0.00    -0.026 A 
ENDROOT
BRANCH   6   7
ATOM      7  C12 UNL d          73.101  47.132  49.999  0.00  0.00    -0.026 A 
ATOM      8  C3  UNL d          71.824  47.767  49.938  0.00  0.00     0.012 A 
ATOM      9  C2  UNL d          71.729  49.126  49.500  0.00  0.00     0.001 A 
ATOM     10  C1  UNL d          72.897  49.842  49.129  0.00  0.00     0.000 A 
ATOM     11  C14 UNL d          74.160  49.229  49.181  0.00  0.00     0.001 A 
ATOM     12  C13 UNL d          74.296  47.874  49.613  0.00  0.00     0.012 A 
ENDBRANCH   6   7
BRANCH   3  13
ATOM     13  C4  UNL d          73.788  41.541  51.876  0.00  0.00     0.115 C 
ATOM     14  C6  UNL d          75.026  41.418  52.778  0.00  0.00     0.026 C 
BRANCH  13  15
ATOM     15  C5  UNL d          73.829  40.681  50.613  0.00  0.00     0.181 C 
ATOM     16  O   UNL d          74.831  40.441  49.996  0.00  0.00    -0.647 OA
ATOM     17  O1  UNL d          72.670  40.226  50.261  0.00  0.00    -0.647 OA
ENDBRANCH  13  15
ENDBRANCH   3  13
TORSDOF 3
ENDMDL
MODEL 2
REMARK VINA RESULT:      -5.9     11.084     13.625
REMARK  3 active torsions:
REMARK  status: ('A' for Active; 'I' for Inactive)
REMARK    1  A    between atoms: C4_5  and  C5_6 
REMARK    2  A    between atoms: C4_5  and  C8_9 
REMARK    3  A    between atoms: C11_12  and  C12_13 
ROOT
ATOM      1  C   UNL d          83.727  51.555  46.123  0.00  0.00     0.013 A 
ATOM      2  C7  UNL d          83.402  51.377  47.475  0.00  0.00     0.009 A 
ATOM      3  C8  UNL d          82.726  52.407  48.155  0.00  0.00    -0.044 A 
ATOM      4  C9  UNL d          82.374  53.615  47.459  0.00  0.00     0.009 A 
ATOM      5  C10 UNL d          82.706  53.793  46.082  0.00  0.00     0.013 A 
ATOM      6  C11 UNL d          83.409  52.734  45.375  0.00  0.00    -0.026 A 
ENDROOT
BRANCH   6   7
ATOM      7  C12 UNL d          83.798  52.888  43.928  0.00  0.00    -0.026 A 
ATOM      8  C3  UNL d          83.092  53.791  43.078  0.00  0.00     0.012 A 
ATOM      9  C2  UNL d          83.488  53.934  41.711  0.00  0.00     0.001 A 
ATOM     10  C1  UNL d          84.580  53.183  41.200  0.00  0.00     0.000 A 
ATOM     11  C14 UNL d          85.282  52.288  42.024  0.00  0.00     0.001 A 
ATOM     12  C13 UNL d          84.916  52.118  43.395  0.00  0.00     0.012 A 
ENDBRANCH   6   7
BRANCH   3  13
ATOM     13  C4  UNL d          82.406  52.157  49.655  0.00  0.00     0.115 C 
ATOM     14  C6  UNL d          83.296  51.071  50.277  0.00  0.00     0.026 C 
BRANCH  13  15
ATOM     15  C5  UNL d          80.906  51.874  49.728  0.00  0.00     0.181 C 
ATOM     16  O   UNL d          80.067  52.723  49.860  0.00  0.00    -0.647 OA
ATOM     17  O1  UNL d          80.613  50.617  49.632  0.00  0.00    -0.647 OA
ENDBRANCH  13  15
ENDBRANCH   3  13
TORSDOF 3
ENDMDL
MODEL 3
REMARK VINA RESULT:      -5.7      2.204      2.590
REMARK  3 active torsions:
REMARK  status: ('A' for Active; 'I' for Inactive)
REMARK    1  A    between atoms: C4_5  and  C5_6 
REMARK    2  A    between atoms: C4_5  and  C8_9 
REMARK    3  A    between atoms: C11_12  and  C12_13 
ROOT
ATOM      1  C   UNL d          74.021  45.601  52.330  0.00  0.00     0.013 A 
ATOM      2  C7  UNL d          74.278  44.439  53.070  0.00  0.00     0.009 A 
ATOM      3  C8  UNL d          74.631  43.260  52.387  0.00  0.00    -0.044 A 
ATOM      4  C9  UNL d          74.730  43.264  50.953  0.00  0.00     0.009 A 
ATOM      5  C10 UNL d          74.468  44.450  50.202  0.00  0.00     0.013 A 
ATOM      6  C11 UNL d          74.097  45.670  50.901  0.00  0.00    -0.026 A 
ENDROOT
BRANCH   6   7
ATOM      7  C12 UNL d          73.792  46.937  50.148  0.00  0.00    -0.026 A 
ATOM      8  C3  UNL d          72.472  47.478  50.141  0.00  0.00     0.012 A 
ATOM      9  C2  UNL d          72.207  48.693  49.433  0.00  0.00     0.001 A 
ATOM     10  C1  UNL d          73.252  49.361  48.740  0.00  0.00     0.000 A 
ATOM     11  C14 UNL d          74.556  48.837  48.736  0.00  0.00     0.001 A 
ATOM     12  C13 UNL d          74.860  47.626  49.432  0.00  0.00     0.012 A 
ENDBRANCH   6   7
BRANCH   3  13
ATOM     13  C4  UNL d          74.891  42.001  53.261  0.00  0.00     0.115 C 
ATOM     14  C6  UNL d          74.339  40.716  52.626  0.00  0.00     0.026 C 
BRANCH  13  15
ATOM     15  C5  UNL d          74.330  42.323  54.646  0.00  0.00     0.181 C 
ATOM     16  O   UNL d          74.978  42.798  55.539  0.00  0.00    -0.647 OA
ATOM     17  O1  UNL d          73.075  42.034  54.775  0.00  0.00    -0.647 OA
ENDBRANCH  13  15
ENDBRANCH   3  13
TORSDOF 3
ENDMDL
