@<TRIPOS>MOLECULE
MOL
   31    32     1     0     0
SMALL
No Charge or Current Charge


@<TRIPOS>ATOM
      1 C1          83.7270    51.5550    46.1230 ca         1 MOL       0.000000
      2 C2          83.4020    51.3770    47.4750 ca         1 MOL       0.000000
      3 C3          82.7260    52.4070    48.1550 ca         1 MOL       0.000000
      4 C4          82.3740    53.6150    47.4590 ca         1 MOL       0.000000
      5 C5          82.7060    53.7930    46.0820 ca         1 MOL       0.000000
      6 C6          83.4090    52.7340    45.3750 cp         1 MOL       0.000000
      7 C7          83.7980    52.8880    43.9280 cp         1 MOL       0.000000
      8 C8          83.0920    53.7910    43.0780 ca         1 MOL       0.000000
      9 C9          83.4880    53.9340    41.7110 ca         1 MOL       0.000000
     10 C10         84.5800    53.1830    41.2000 ca         1 MOL       0.000000
     11 C11         85.2820    52.2880    42.0240 ca         1 MOL       0.000000
     12 C12         84.9160    52.1180    43.3950 ca         1 MOL       0.000000
     13 C13         82.4060    52.1570    49.6550 c3         1 MOL       0.000000
     14 C14         83.2960    51.0710    50.2770 c3         1 MOL       0.000000
     15 C15         80.9060    51.8740    49.7280 c          1 MOL       0.000000
     16 O1          80.0670    52.7230    49.8600 oh         1 MOL       0.000000
     17 O2          80.6130    50.6170    49.6320 o          1 MOL       0.000000
     18 H1          84.2250    50.7920    45.6380 ha         1 MOL       0.000000
     19 H2          83.6550    50.5040    47.9640 ha         1 MOL       0.000000
     20 H3          81.8740    54.3640    47.9620 ha         1 MOL       0.000000
     21 H4          82.4500    54.6650    45.5930 ha         1 MOL       0.000000
     22 H5          82.2990    54.3380    43.4480 ha         1 MOL       0.000000
     23 H6          82.9780    54.5850    41.0940 ha         1 MOL       0.000000
     24 H7          84.8600    53.2960    40.2130 ha         1 MOL       0.000000
     25 H8          86.0700    51.7470    41.6350 ha         1 MOL       0.000000
     26 H9          85.4350    51.4610    43.9980 ha         1 MOL       0.000000
     27 H10         82.6350    53.0130    50.2550 hc         1 MOL       0.000000
     28 H11         83.1530    50.1490    49.7530 hc         1 MOL       0.000000
     29 H12         83.0330    50.9410    51.3060 hc         1 MOL       0.000000
     30 H13         84.3220    51.3660    50.2050 hc         1 MOL       0.000000
     31 H14         80.3180    53.6230    49.9260 ho         1 MOL       0.000000
@<TRIPOS>BOND
     1     1     2 ar  
     2     1    18 1   
     3     2     3 ar  
     4     2    19 1   
     5     3    13 1   
     6     4     3 ar  
     7     4    20 1   
     8     5     4 ar  
     9     5    21 1   
    10     6     5 ar  
    11     6     1 ar  
    12     7     6 1   
    13     8     7 ar  
    14     8    22 1   
    15     9     8 ar  
    16     9    23 1   
    17    10     9 ar  
    18    10    11 ar  
    19    10    24 1   
    20    11    12 ar  
    21    11    25 1   
    22    12     7 ar  
    23    12    26 1   
    24    13    15 1   
    25    13    14 1   
    26    13    27 1   
    27    14    28 1   
    28    14    29 1   
    29    14    30 1   
    30    15    16 1   
    31    16    31 1   
    32    17    15 2   
@<TRIPOS>SUBSTRUCTURE
     1 MOL         1 TEMP              0 ****  ****    0 ROOT
