@<TRIPOS>MOLECULE
MOL
   31    32     1     0     0
SMALL
No Charge or Current Charge


@<TRIPOS>ATOM
      1 C1          74.4270    44.9500    50.2800 ca         1 MOL       0.000000
      2 C2          74.5960    43.6310    50.7220 ca         1 MOL       0.000000
      3 C3          73.5360    42.9980    51.3990 ca         1 MOL       0.000000
      4 C4          72.3040    43.7040    51.6220 ca         1 MOL       0.000000
      5 C5          72.1360    45.0480    51.1700 ca         1 MOL       0.000000
      6 C6          73.2280    45.7090    50.4740 cp         1 MOL       0.000000
      7 C7          73.1010    47.1320    49.9990 cp         1 MOL       0.000000
      8 C8          71.8240    47.7670    49.9380 ca         1 MOL       0.000000
      9 C9          71.7290    49.1260    49.5000 ca         1 MOL       0.000000
     10 C10         72.8970    49.8420    49.1290 ca         1 MOL       0.000000
     11 C11         74.1600    49.2290    49.1810 ca         1 MOL       0.000000
     12 C12         74.2960    47.8740    49.6130 ca         1 MOL       0.000000
     13 C13         73.7880    41.5410    51.8760 c3         1 MOL       0.000000
     14 C14         75.0260    41.4180    52.7780 c3         1 MOL       0.000000
     15 C15         73.8290    40.6810    50.6130 c          1 MOL       0.000000
     16 O1          74.8310    40.4410    49.9960 o          1 MOL       0.000000
     17 O2          72.6700    40.2260    50.2610 oh         1 MOL       0.000000
     18 H1          75.2130    45.4010    49.7860 ha         1 MOL       0.000000
     19 H2          75.4830    43.1320    50.5540 ha         1 MOL       0.000000
     20 H3          71.5300    43.2330    52.1160 ha         1 MOL       0.000000
     21 H4          71.2470    45.5460    51.3360 ha         1 MOL       0.000000
     22 H5          70.9740    47.2490    50.2080 ha         1 MOL       0.000000
     23 H6          70.8070    49.5870    49.4540 ha         1 MOL       0.000000
     24 H7          72.8180    50.8230    48.8180 ha         1 MOL       0.000000
     25 H8          74.9990    49.7630    48.9040 ha         1 MOL       0.000000
     26 H9          75.2250    47.4270    49.6510 ha         1 MOL       0.000000
     27 H10         73.0030    41.1950    52.5160 hc         1 MOL       0.000000
     28 H11         75.8930    41.7410    52.2400 hc         1 MOL       0.000000
     29 H12         75.1500    40.3980    53.0760 hc         1 MOL       0.000000
     30 H13         74.8970    42.0300    53.6460 hc         1 MOL       0.000000
     31 H14         71.9110    40.4350    50.7690 ho         1 MOL       0.000000
@<TRIPOS>BOND
     1     1     6 ar  
     2     1     2 ar  
     3     1    18 1   
     4     2     3 ar  
     5     2    19 1   
     6     3     4 ar  
     7     3    13 1   
     8     4    20 1   
     9     5     4 ar  
    10     5    21 1   
    11     6     5 ar  
    12     7     6 1   
    13     8     7 ar  
    14     8    22 1   
    15     9     8 ar  
    16     9    23 1   
    17    10    11 ar  
    18    10     9 ar  
    19    10    24 1   
    20    11    12 ar  
    21    11    25 1   
    22    12     7 ar  
    23    12    26 1   
    24    13    14 1   
    25    13    27 1   
    26    14    28 1   
    27    14    29 1   
    28    14    30 1   
    29    15    13 1   
    30    16    15 2   
    31    17    15 1   
    32    17    31 1   
@<TRIPOS>SUBSTRUCTURE
     1 MOL         1 TEMP              0 ****  ****    0 ROOT
