@<TRIPOS>MOLECULE
MOL
   31    32     1     0     0
SMALL
No Charge or Current Charge


@<TRIPOS>ATOM
      1 C1          74.0210    45.6010    52.3300 ca         1 MOL       0.000000
      2 C2          74.2780    44.4390    53.0700 ca         1 MOL       0.000000
      3 C3          74.6310    43.2600    52.3870 ca         1 MOL       0.000000
      4 C4          74.7300    43.2640    50.9530 ca         1 MOL       0.000000
      5 C5          74.4680    44.4500    50.2020 ca         1 MOL       0.000000
      6 C6          74.0970    45.6700    50.9010 cp         1 MOL       0.000000
      7 C7          73.7920    46.9370    50.1480 cp         1 MOL       0.000000
      8 C8          72.4720    47.4780    50.1410 ca         1 MOL       0.000000
      9 C9          72.2070    48.6930    49.4330 ca         1 MOL       0.000000
     10 C10         73.2520    49.3610    48.7400 ca         1 MOL       0.000000
     11 C11         74.5560    48.8370    48.7360 ca         1 MOL       0.000000
     12 C12         74.8600    47.6260    49.4320 ca         1 MOL       0.000000
     13 C13         74.8910    42.0010    53.2610 c3         1 MOL       0.000000
     14 C14         74.3390    40.7160    52.6260 c3         1 MOL       0.000000
     15 C15         74.3300    42.3230    54.6460 c          1 MOL       0.000000
     16 O1          74.9780    42.7980    55.5390 oh         1 MOL       0.000000
     17 O2          73.0750    42.0340    54.7750 o          1 MOL       0.000000
     18 H1          73.7620    46.4570    52.8450 ha         1 MOL       0.000000
     19 H2          74.2100    44.4480    54.1000 ha         1 MOL       0.000000
     20 H3          74.9940    42.3970    50.4590 ha         1 MOL       0.000000
     21 H4          74.5410    44.4410    49.1730 ha         1 MOL       0.000000
     22 H5          71.7110    46.9950    50.6440 ha         1 MOL       0.000000
     23 H6          71.2530    49.0860    49.4260 ha         1 MOL       0.000000
     24 H7          73.0520    50.2390    48.2350 ha         1 MOL       0.000000
     25 H8          75.3030    49.3320    48.2240 ha         1 MOL       0.000000
     26 H9          75.8190    47.2450    49.4280 ha         1 MOL       0.000000
     27 H10         75.9360    41.7860    53.3420 hc         1 MOL       0.000000
     28 H11         73.2820    40.8100    52.4920 hc         1 MOL       0.000000
     29 H12         74.5440    39.8850    53.2670 hc         1 MOL       0.000000
     30 H13         74.8070    40.5580    51.6770 hc         1 MOL       0.000000
     31 H14         75.8850    42.9940    55.4070 ho         1 MOL       0.000000
@<TRIPOS>BOND
     1     1     2 ar  
     2     1    18 1   
     3     2    19 1   
     4     3     2 ar  
     5     3    13 1   
     6     4     3 ar  
     7     4    20 1   
     8     5     6 ar  
     9     5     4 ar  
    10     5    21 1   
    11     6     1 ar  
    12     7     6 1   
    13     8     7 ar  
    14     8    22 1   
    15     9     8 ar  
    16     9    23 1   
    17    10     9 ar  
    18    10    24 1   
    19    11    10 ar  
    20    11    12 ar  
    21    11    25 1   
    22    12     7 ar  
    23    12    26 1   
    24    13    15 1   
    25    13    27 1   
    26    14    13 1   
    27    14    28 1   
    28    14    29 1   
    29    14    30 1   
    30    15    17 2   
    31    15    16 1   
    32    16    31 1   
@<TRIPOS>SUBSTRUCTURE
     1 MOL         1 TEMP              0 ****  ****    0 ROOT
