@<TRIPOS>MOLECULE
MOL
   32    33     1     0     0
SMALL
No Charge or Current Charge


@<TRIPOS>ATOM
      1 N1          33.5950    20.6370    54.2970 n2         1 MOL       0.000000
      2 C1          33.4670    22.0120    54.5020 c3         1 MOL       0.000000
      3 C2          34.2800    19.8770    55.2200 ce         1 MOL       0.000000
      4 C3          34.8030    20.4880    56.4770 ce         1 MOL       0.000000
      5 C4          34.6210    21.9720    56.5710 c2         1 MOL       0.000000
      6 N2          33.9390    22.6870    55.6330 nh         1 MOL       0.000000
      7 N3          34.4240    18.5430    55.0520 nh         1 MOL       0.000000
      8 H1          33.7740    23.6970    55.7530 hn         1 MOL       0.000000
      9 H2          34.9390    17.9890    55.7510 hn         1 MOL       0.000000
     10 H3          34.0200    18.0820    54.2250 hn         1 MOL       0.000000
     11 C5          35.5080    19.7480    57.4990 ca         1 MOL       0.000000
     12 C6          36.8570    19.3710    57.3910 ca         1 MOL       0.000000
     13 C7          37.5110    18.6380    58.4090 ca         1 MOL       0.000000
     14 C8          36.7900    18.2400    59.6000 ca         1 MOL       0.000000
     15 C9          35.4550    18.5960    59.7620 ca         1 MOL       0.000000
     16 Cl1         37.6700    17.3660    60.7070 cl         1 MOL       0.000000
     17 C10         34.8180    19.3440    58.7260 ca         1 MOL       0.000000
     18 C11         35.1420    22.6710    57.7980 c3         1 MOL       0.000000
     19 C12         36.6250    22.9370    57.9350 c3         1 MOL       0.000000
     20 N4          32.7690    22.7650    53.5470 n3         1 MOL       0.000000
     21 H4          31.7530    22.9020    53.6400 hn         1 MOL       0.000000
     22 H5          33.2740    23.1820    52.7510 hn         1 MOL       0.000000
     23 H6          34.3940    21.5460    54.7650 h3         1 MOL       0.000000
     24 H7          37.3860    19.6360    56.5450 ha         1 MOL       0.000000
     25 H8          38.5060    18.3860    58.3020 ha         1 MOL       0.000000
     26 H9          34.9370    18.3250    60.6120 ha         1 MOL       0.000000
     27 H10         33.8290    19.6110    58.8470 ha         1 MOL       0.000000
     28 H11         34.8540    22.0760    58.6400 hc         1 MOL       0.000000
     29 H12         34.7180    23.6510    57.7260 hc         1 MOL       0.000000
     30 H13         37.1480    22.0070    58.0150 hc         1 MOL       0.000000
     31 H14         36.8030    23.5230    58.8120 hc         1 MOL       0.000000
     32 H15         36.9730    23.4690    57.0740 hc         1 MOL       0.000000
@<TRIPOS>BOND
     1     1     2 1   
     2     1     3 2   
     3     2     6 1   
     4     2    23 1   
     5     3     4 1   
     6     4     5 2   
     7     4    11 1   
     8     5    18 1   
     9     6     8 1   
    10     6     5 1   
    11     7     3 1   
    12     7     9 1   
    13    10     7 1   
    14    11    17 ar  
    15    12    11 ar  
    16    12    13 ar  
    17    12    24 1   
    18    13    14 ar  
    19    13    25 1   
    20    14    15 ar  
    21    14    16 1   
    22    15    26 1   
    23    17    15 ar  
    24    17    27 1   
    25    18    19 1   
    26    18    28 1   
    27    18    29 1   
    28    19    30 1   
    29    19    31 1   
    30    19    32 1   
    31    20    21 1   
    32    20     2 1   
    33    22    20 1   
@<TRIPOS>SUBSTRUCTURE
     1 MOL         1 TEMP              0 ****  ****    0 ROOT
