@<TRIPOS>MOLECULE
MOL
   32    33     1     0     0
SMALL
No Charge or Current Charge


@<TRIPOS>ATOM
      1 N1          37.4360    20.3730    58.8090 n2         1 MOL       0.000000
      2 C1          37.0290    19.1010    58.4060 c3         1 MOL       0.000000
      3 C2          36.7510    21.4790    58.3530 ce         1 MOL       0.000000
      4 C3          35.5280    21.3260    57.5110 ce         1 MOL       0.000000
      5 C4          35.2050    19.9140    57.1300 c2         1 MOL       0.000000
      6 N2          35.9120    18.8480    57.6030 nh         1 MOL       0.000000
      7 N3          37.1200    22.7260    58.7210 nh         1 MOL       0.000000
      8 H1          35.6300    17.8830    57.3750 hn         1 MOL       0.000000
      9 H2          36.5970    23.5420    58.3710 hn         1 MOL       0.000000
     10 H3          37.9220    22.8600    59.3520 hn         1 MOL       0.000000
     11 C5          34.7470    22.4370    57.0180 ca         1 MOL       0.000000
     12 C6          35.0080    23.0870    55.7990 ca         1 MOL       0.000000
     13 C7          34.2270    24.1790    55.3540 ca         1 MOL       0.000000
     14 C8          33.1310    24.6710    56.1620 ca         1 MOL       0.000000
     15 C9          32.8230    24.0580    57.3720 ca         1 MOL       0.000000
     16 Cl1         32.3080    25.9710    55.5330 cl         1 MOL       0.000000
     17 C10         33.6190    22.9510    57.7970 ca         1 MOL       0.000000
     18 C11         34.0000    19.6740    56.2620 c3         1 MOL       0.000000
     19 C12         34.1750    19.4920    54.7710 c3         1 MOL       0.000000
     20 N4          37.7450    17.9910    58.8810 n3         1 MOL       0.000000
     21 H4          37.9350    17.1950    58.2560 hn         1 MOL       0.000000
     22 H5          38.0790    17.9730    59.8550 hn         1 MOL       0.000000
     23 H6          36.9850    19.9000    57.6960 h3         1 MOL       0.000000
     24 H7          35.7910    22.7580    55.2130 ha         1 MOL       0.000000
     25 H8          34.4390    24.6270    54.4490 ha         1 MOL       0.000000
     26 H9          32.0370    24.3950    57.9500 ha         1 MOL       0.000000
     27 H10         33.3890    22.4930    58.6930 ha         1 MOL       0.000000
     28 H11         33.5250    18.7880    56.6290 hc         1 MOL       0.000000
     29 H12         33.4510    20.5900    56.3390 hc         1 MOL       0.000000
     30 H13         34.7200    18.5910    54.5830 hc         1 MOL       0.000000
     31 H14         34.7140    20.3250    54.3710 hc         1 MOL       0.000000
     32 H15         33.2140    19.4320    54.3040 hc         1 MOL       0.000000
@<TRIPOS>BOND
     1     2     1 1   
     2     2    20 1   
     3     2    23 1   
     4     3     7 1   
     5     3     1 2   
     6     4     3 1   
     7     5     4 2   
     8     5     6 1   
     9     6     2 1   
    10     7    10 1   
    11     8     6 1   
    12     9     7 1   
    13    11     4 1   
    14    11    17 ar  
    15    12    11 ar  
    16    12    24 1   
    17    13    12 ar  
    18    13    14 ar  
    19    13    25 1   
    20    14    15 ar  
    21    15    17 ar  
    22    15    26 1   
    23    16    14 1   
    24    17    27 1   
    25    18     5 1   
    26    18    28 1   
    27    18    29 1   
    28    19    18 1   
    29    19    30 1   
    30    19    31 1   
    31    19    32 1   
    32    20    22 1   
    33    21    20 1   
@<TRIPOS>SUBSTRUCTURE
     1 MOL         1 TEMP              0 ****  ****    0 ROOT
