@<TRIPOS>MOLECULE
MOL
   32    33     1     0     0
SMALL
No Charge or Current Charge


@<TRIPOS>ATOM
      1 N1          33.7810    21.2660    55.1280 n2         1 MOL       0.000000
      2 C1          34.2600    22.5760    55.1420 c3         1 MOL       0.000000
      3 C2          34.2230    20.3740    56.0810 ce         1 MOL       0.000000
      4 C3          35.1320    20.8170    57.1800 ce         1 MOL       0.000000
      5 C4          35.5900    22.2390    57.0740 c2         1 MOL       0.000000
      6 N2          35.1290    23.0870    56.1120 nh         1 MOL       0.000000
      7 N3          33.7820    19.0960    56.0950 nh         1 MOL       0.000000
      8 H1          35.4130    24.0780    56.1000 hn         1 MOL       0.000000
      9 H2          34.1220    18.4420    56.8150 hn         1 MOL       0.000000
     10 H3          33.1050    18.7770    55.3870 hn         1 MOL       0.000000
     11 C5          35.6150    19.9440    58.2250 ca         1 MOL       0.000000
     12 C6          34.9070    19.6920    59.4130 ca         1 MOL       0.000000
     13 C7          35.4180    18.8400    60.4190 ca         1 MOL       0.000000
     14 C8          36.7090    18.2060    60.2530 ca         1 MOL       0.000000
     15 C9          37.4470    18.4130    59.0920 ca         1 MOL       0.000000
     16 Cl1         37.1990    17.2450    61.5180 cl         1 MOL       0.000000
     17 C10         36.9070    19.2700    58.0860 ca         1 MOL       0.000000
     18 C11         36.5280    22.7590    58.1300 c3         1 MOL       0.000000
     19 C12         38.0120    22.8240    57.8460 c3         1 MOL       0.000000
     20 N4          33.7980    23.4640    54.1590 n3         1 MOL       0.000000
     21 H4          33.4660    24.4020    54.4270 hn         1 MOL       0.000000
     22 H5          33.7920    23.1790    53.1690 hn         1 MOL       0.000000
     23 H6          34.9470    21.7890    55.3730 h3         1 MOL       0.000000
     24 H7          33.9890    20.1410    59.5550 ha         1 MOL       0.000000
     25 H8          34.8680    18.6690    61.2760 ha         1 MOL       0.000000
     26 H9          38.3640    17.9570    58.9610 ha         1 MOL       0.000000
     27 H10         37.4520    19.4210    57.2220 ha         1 MOL       0.000000
     28 H11         36.4040    22.1350    58.9900 hc         1 MOL       0.000000
     29 H12         36.2470    23.7870    58.2290 hc         1 MOL       0.000000
     30 H13         38.3960    21.8320    57.7280 hc         1 MOL       0.000000
     31 H14         38.5100    23.3050    58.6610 hc         1 MOL       0.000000
     32 H15         38.1790    23.3800    56.9470 hc         1 MOL       0.000000
@<TRIPOS>BOND
     1     1     2 1   
     2     1     3 2   
     3     2     6 1   
     4     2    23 1   
     5     3     7 1   
     6     3     4 1   
     7     4    11 1   
     8     5     4 2   
     9     5    18 1   
    10     6     5 1   
    11     7     9 1   
    12     8     6 1   
    13    10     7 1   
    14    11    12 ar  
    15    12    13 ar  
    16    12    24 1   
    17    13    25 1   
    18    14    13 ar  
    19    14    16 1   
    20    15    14 ar  
    21    15    26 1   
    22    17    11 ar  
    23    17    15 ar  
    24    17    27 1   
    25    18    28 1   
    26    18    29 1   
    27    19    18 1   
    28    19    30 1   
    29    19    31 1   
    30    19    32 1   
    31    20    21 1   
    32    20     2 1   
    33    22    20 1   
@<TRIPOS>SUBSTRUCTURE
     1 MOL         1 TEMP              0 ****  ****    0 ROOT
