@<TRIPOS>MOLECULE
MOL
   31    32     1     0     0
SMALL
No Charge or Current Charge


@<TRIPOS>ATOM
      1 C1          29.0220   -12.9230    67.1940 ca         1 MOL       0.000000
      2 C2          29.5800   -11.8950    66.3320 ca         1 MOL       0.000000
      3 C3          30.9930   -11.9220    65.9200 cp         1 MOL       0.000000
      4 C4          31.8230   -13.0290    66.4700 ca         1 MOL       0.000000
      5 C5          31.2680   -14.0330    67.3200 ca         1 MOL       0.000000
      6 C6          29.8810   -13.9620    67.6990 ca         1 MOL       0.000000
      7 C7          31.5540   -10.9430    65.0300 cp         1 MOL       0.000000
      8 C8          30.7490   -10.4390    63.8750 ca         1 MOL       0.000000
      9 C9          31.2850    -9.4750    62.9580 ca         1 MOL       0.000000
     10 C10         32.5800    -8.8550    63.1970 ca         1 MOL       0.000000
     11 C11         33.3740    -9.3200    64.3000 ca         1 MOL       0.000000
     12 C12         32.8630   -10.2680    65.2530 ca         1 MOL       0.000000
     13 F1          33.7310   -10.6060    66.2850 f          1 MOL       0.000000
     14 C13         33.2060    -7.7850    62.2260 c3         1 MOL       0.000000
     15 C14         34.7360    -7.5470    62.4900 c3         1 MOL       0.000000
     16 C15         32.3940    -6.4220    62.3270 c          1 MOL       0.000000
     17 O1          31.7340    -6.0120    61.3670 o          1 MOL       0.000000
     18 O2          32.4430    -5.7670    63.3920 oh         1 MOL       0.000000
     19 H1          28.0200   -12.9090    67.4420 ha         1 MOL       0.000000
     20 H2          28.9720   -11.1290    66.0010 ha         1 MOL       0.000000
     21 H3          32.8260   -13.0720    66.2310 ha         1 MOL       0.000000
     22 H4          31.8590   -14.8070    67.6620 ha         1 MOL       0.000000
     23 H5          29.4950   -14.6690    68.3440 ha         1 MOL       0.000000
     24 H6          29.7890   -10.7920    63.7350 ha         1 MOL       0.000000
     25 H7          30.7450    -9.2170    62.1170 ha         1 MOL       0.000000
     26 H8          34.3360    -8.9640    64.4120 ha         1 MOL       0.000000
     27 H9          33.1290    -8.1710    61.2310 hc         1 MOL       0.000000
     28 H10         34.8710    -7.1580    63.4780 hc         1 MOL       0.000000
     29 H11         35.1170    -6.8470    61.7760 hc         1 MOL       0.000000
     30 H12         35.2630    -8.4740    62.3960 hc         1 MOL       0.000000
     31 H13         32.9460    -6.0860    64.1150 ho         1 MOL       0.000000
@<TRIPOS>BOND
     1     1     6 ar  
     2     1    19 1   
     3     2     1 ar  
     4     2    20 1   
     5     3     2 ar  
     6     3     4 ar  
     7     4     5 ar  
     8     4    21 1   
     9     5     6 ar  
    10     5    22 1   
    11     6    23 1   
    12     7    12 ar  
    13     7     3 1   
    14     8     7 ar  
    15     8    24 1   
    16     9    10 ar  
    17     9     8 ar  
    18     9    25 1   
    19    10    11 ar  
    20    11    12 ar  
    21    11    26 1   
    22    12    13 1   
    23    14    16 1   
    24    14    15 1   
    25    14    10 1   
    26    14    27 1   
    27    15    28 1   
    28    15    29 1   
    29    15    30 1   
    30    16    18 1   
    31    17    16 2   
    32    18    31 1   
@<TRIPOS>SUBSTRUCTURE
     1 MOL         1 TEMP              0 ****  ****    0 ROOT
