@<TRIPOS>MOLECULE
MOL
   31    32     1     0     0
SMALL
No Charge or Current Charge


@<TRIPOS>ATOM
      1 C1          30.8670    -5.7100    62.5290 ca         1 MOL       0.000000
      2 C2          30.3050    -6.8030    63.3060 ca         1 MOL       0.000000
      3 C3          30.6110    -8.2080    62.9850 cp         1 MOL       0.000000
      4 C4          31.4840    -8.4440    61.8020 ca         1 MOL       0.000000
      5 C5          32.0280    -7.3630    61.0440 ca         1 MOL       0.000000
      6 C6          31.6970    -6.0060    61.3920 ca         1 MOL       0.000000
      7 C7          30.1060    -9.3030    63.7670 cp         1 MOL       0.000000
      8 C8          30.0230    -9.1780    65.2550 ca         1 MOL       0.000000
      9 C9          29.5400   -10.2580    66.0670 ca         1 MOL       0.000000
     10 C10         28.9880   -11.4600    65.4600 ca         1 MOL       0.000000
     11 C11         29.0550   -11.6060    64.0330 ca         1 MOL       0.000000
     12 C12         29.5110   -10.5380    63.1850 ca         1 MOL       0.000000
     13 F1          29.4950   -10.8080    61.8210 f          1 MOL       0.000000
     14 C13         28.4370   -12.6680    66.3070 c3         1 MOL       0.000000
     15 C14         27.5420   -12.2060    67.5120 c3         1 MOL       0.000000
     16 C15         29.6450   -13.5710    66.8110 c          1 MOL       0.000000
     17 O1          30.8130   -13.2330    66.5960 o          1 MOL       0.000000
     18 O2          29.3910   -14.6340    67.4200 oh         1 MOL       0.000000
     19 H1          30.6720    -4.7310    62.7910 ha         1 MOL       0.000000
     20 H2          29.6790    -6.5900    64.0980 ha         1 MOL       0.000000
     21 H3          31.7010    -9.4130    61.5230 ha         1 MOL       0.000000
     22 H4          32.6570    -7.5540    60.2480 ha         1 MOL       0.000000
     23 H5          32.0620    -5.2320    60.8160 ha         1 MOL       0.000000
     24 H6          30.3190    -8.2980    65.7060 ha         1 MOL       0.000000
     25 H7          29.5850   -10.1810    67.0950 ha         1 MOL       0.000000
     26 H8          28.7680   -12.5000    63.6050 ha         1 MOL       0.000000
     27 H9          27.8040   -13.2460    65.6660 hc         1 MOL       0.000000
     28 H10         28.1290   -11.6200    68.1880 hc         1 MOL       0.000000
     29 H11         27.1610   -13.0650    68.0230 hc         1 MOL       0.000000
     30 H12         26.7270   -11.6180    67.1460 hc         1 MOL       0.000000
     31 H13         28.5010   -14.8820    67.5780 ho         1 MOL       0.000000
@<TRIPOS>BOND
     1     1     2 ar  
     2     1    19 1   
     3     2    20 1   
     4     3     2 ar  
     5     3     7 1   
     6     4     3 ar  
     7     4    21 1   
     8     5     6 ar  
     9     5     4 ar  
    10     5    22 1   
    11     6     1 ar  
    12     6    23 1   
    13     7     8 ar  
    14     8     9 ar  
    15     8    24 1   
    16     9    25 1   
    17    10     9 ar  
    18    10    14 1   
    19    11    10 ar  
    20    11    26 1   
    21    12     7 ar  
    22    12    11 ar  
    23    13    12 1   
    24    14    16 1   
    25    14    15 1   
    26    14    27 1   
    27    15    28 1   
    28    15    29 1   
    29    15    30 1   
    30    16    18 1   
    31    17    16 2   
    32    18    31 1   
@<TRIPOS>SUBSTRUCTURE
     1 MOL         1 TEMP              0 ****  ****    0 ROOT
