@<TRIPOS>MOLECULE
MOL
   31    32     1     0     0
SMALL
No Charge or Current Charge


@<TRIPOS>ATOM
      1 C1          26.8370   -10.4400    67.8750 ca         1 MOL       0.000000
      2 C2          27.8780   -10.0780    66.9270 ca         1 MOL       0.000000
      3 C3          27.8540    -8.7890    66.2150 cp         1 MOL       0.000000
      4 C4          26.6870    -7.9050    66.4840 ca         1 MOL       0.000000
      5 C5          25.6670    -8.2700    67.4140 ca         1 MOL       0.000000
      6 C6          25.7310    -9.5430    68.0840 ca         1 MOL       0.000000
      7 C7          28.8970    -8.3910    65.3110 cp         1 MOL       0.000000
      8 C8          30.3220    -8.7130    65.6300 ca         1 MOL       0.000000
      9 C9          31.3890    -8.3150    64.7570 ca         1 MOL       0.000000
     10 C10         31.1090    -7.7030    63.4660 ca         1 MOL       0.000000
     11 C11         29.7490    -7.3840    63.1340 ca         1 MOL       0.000000
     12 C12         28.6520    -7.7860    63.9710 ca         1 MOL       0.000000
     13 F1          27.3880    -7.4340    63.5130 f          1 MOL       0.000000
     14 C13         32.2440    -7.2580    62.4700 c3         1 MOL       0.000000
     15 C14         31.7570    -6.1780    61.4380 c3         1 MOL       0.000000
     16 C15         32.8380    -8.5300    61.7220 c          1 MOL       0.000000
     17 O1          33.8390    -9.1050    62.1610 oh         1 MOL       0.000000
     18 O2          32.2790    -8.9310    60.6770 o          1 MOL       0.000000
     19 H1          26.8900   -11.3310    68.3930 ha         1 MOL       0.000000
     20 H2          28.6510   -10.7390    66.7490 ha         1 MOL       0.000000
     21 H3          26.6130    -7.0050    65.9850 ha         1 MOL       0.000000
     22 H4          24.8860    -7.6230    67.6060 ha         1 MOL       0.000000
     23 H5          24.9700    -9.8170    68.7250 ha         1 MOL       0.000000
     24 H6          30.5420    -9.2320    66.4950 ha         1 MOL       0.000000
     25 H7          32.3680    -8.4640    65.0480 ha         1 MOL       0.000000
     26 H8          29.5540    -6.8520    62.2720 ha         1 MOL       0.000000
     27 H9          33.0150    -6.7950    63.0500 hc         1 MOL       0.000000
     28 H10         30.9810    -6.5910    60.8290 hc         1 MOL       0.000000
     29 H11         32.5770    -5.8820    60.8180 hc         1 MOL       0.000000
     30 H12         31.3810    -5.3250    61.9640 hc         1 MOL       0.000000
     31 H13         34.2500    -8.7970    62.9440 ho         1 MOL       0.000000
@<TRIPOS>BOND
     1     1     6 ar  
     2     1    19 1   
     3     2     1 ar  
     4     2    20 1   
     5     3     4 ar  
     6     3     2 ar  
     7     4     5 ar  
     8     4    21 1   
     9     5     6 ar  
    10     5    22 1   
    11     6    23 1   
    12     7     8 ar  
    13     7     3 1   
    14     8    24 1   
    15     9     8 ar  
    16     9    25 1   
    17    10     9 ar  
    18    11    10 ar  
    19    11    12 ar  
    20    11    26 1   
    21    12     7 ar  
    22    13    12 1   
    23    14    10 1   
    24    14    27 1   
    25    15    14 1   
    26    15    28 1   
    27    15    29 1   
    28    15    30 1   
    29    16    17 1   
    30    16    14 1   
    31    17    31 1   
    32    18    16 2   
@<TRIPOS>SUBSTRUCTURE
     1 MOL         1 TEMP              0 ****  ****    0 ROOT
