MODEL 1
REMARK VINA RESULT:      -6.5      0.000      0.000
REMARK  9 active torsions:
REMARK  status: ('A' for Active; 'I' for Inactive)
REMARK    1  A    between atoms: C2_3  and  C3_4 
REMARK    2  A    between atoms: C3_4  and  C5_6 
REMARK    3  A    between atoms: C3_4  and  N_8 
REMARK       I    between atoms: C5_6  and  N1_10 
REMARK       I    between atoms: N_8  and  C13_19 
REMARK    4  A    between atoms: C8_14  and  C11_17 
REMARK    5  A    between atoms: C9_15  and  C10_16 
REMARK    6  A    between atoms: C9_15  and  N2_22 
REMARK    7  A    between atoms: C10_16  and  C11_17 
REMARK    8  A    between atoms: C10_16  and  C13_19 
REMARK    9  A    between atoms: C14_20  and  N2_22 
ROOT
ATOM      1  N   UNL d          46.984  71.374  59.722  0.00  0.00    -0.347 N 
ATOM      2  H10 UNL d          46.026  71.443  60.096  0.00  0.00     0.163 HD
ATOM      3  C13 UNL d          47.201  71.785  58.454  0.00  0.00     0.224 C 
ATOM      4  O3  UNL d          48.329  71.744  57.906  0.00  0.00    -0.273 OA
ENDROOT
BRANCH   1   5
ATOM      5  C3  UNL d          48.060  70.817  60.627  0.00  0.00     0.183 C 
BRANCH   5   6
ATOM      6  C2  UNL d          48.613  71.923  61.666  0.00  0.00    -0.022 C 
ATOM      7  C   UNL d          47.489  72.913  62.073  0.00  0.00     0.017 C 
ATOM      8  C1  UNL d          49.149  71.311  63.018  0.00  0.00     0.017 C 
ATOM      9  C4  UNL d          49.812  72.756  61.070  0.00  0.00     0.017 C 
ENDBRANCH   5   6
BRANCH   5  10
ATOM     10  C5  UNL d          47.450  69.511  61.308  0.00  0.00     0.240 C 
ATOM     11  O   UNL d          46.575  69.590  62.198  0.00  0.00    -0.271 OA
ATOM     12  N1  UNL d          47.953  68.338  60.833  0.00  0.00    -0.364 N 
ATOM     13  C6  UNL d          47.540  66.996  61.306  0.00  0.00     0.149 C 
ATOM     14  H11 UNL d          48.670  68.387  60.095  0.00  0.00     0.161 HD
ENDBRANCH   5  10
ENDBRANCH   1   5
BRANCH   3  15
ATOM     15  C10 UNL d          45.979  72.334  57.660  0.00  0.00     0.099 C 
BRANCH  15  16
ATOM     16  C9  UNL d          44.759  71.455  58.126  0.00  0.00     0.175 C 
BRANCH  16  17
ATOM     17  N2  UNL d          44.622  70.207  57.381  0.00  0.00    -0.199 N 
ATOM     18  O1  UNL d          44.371  70.302  56.127  0.00  0.00    -0.084 OA
BRANCH  17  19
ATOM     19  C14 UNL d          44.728  68.993  57.926  0.00  0.00     0.379 C 
ATOM     20  O2  UNL d          45.411  68.737  58.859  0.00  0.00    -0.281 OA
ENDBRANCH  17  19
ENDBRANCH  16  17
ENDBRANCH  15  16
BRANCH  15  21
ATOM     21  C11 UNL d          45.704  73.865  57.955  0.00  0.00     0.019 C 
BRANCH  21  22
ATOM     22  C8  UNL d          46.504  74.957  57.204  0.00  0.00    -0.022 C 
ATOM     23  C7  UNL d          47.796  75.307  57.977  0.00  0.00     0.009 C 
ATOM     24  C12 UNL d          46.981  74.399  55.875  0.00  0.00     0.009 C 
ENDBRANCH  21  22
ENDBRANCH  15  21
ENDBRANCH   3  15
TORSDOF 9
ENDMDL
MODEL 2
REMARK VINA RESULT:      -6.4      1.878      2.732
REMARK  9 active torsions:
REMARK  status: ('A' for Active; 'I' for Inactive)
REMARK    1  A    between atoms: C2_3  and  C3_4 
REMARK    2  A    between atoms: C3_4  and  C5_6 
REMARK    3  A    between atoms: C3_4  and  N_8 
REMARK       I    between atoms: C5_6  and  N1_10 
REMARK       I    between atoms: N_8  and  C13_19 
REMARK    4  A    between atoms: C8_14  and  C11_17 
REMARK    5  A    between atoms: C9_15  and  C10_16 
REMARK    6  A    between atoms: C9_15  and  N2_22 
REMARK    7  A    between atoms: C10_16  and  C11_17 
REMARK    8  A    between atoms: C10_16  and  C13_19 
REMARK    9  A    between atoms: C14_20  and  N2_22 
ROOT
ATOM      1  N   UNL d          47.162  69.124  60.489  0.00  0.00    -0.347 N 
ATOM      2  H10 UNL d          46.464  68.602  59.940  0.00  0.00     0.163 HD
ATOM      3  C13 UNL d          47.583  70.315  60.010  0.00  0.00     0.224 C 
ATOM      4  O3  UNL d          48.428  71.029  60.603  0.00  0.00    -0.273 OA
ENDROOT
BRANCH   1   5
ATOM      5  C3  UNL d          47.651  68.512  61.783  0.00  0.00     0.183 C 
BRANCH   5   6
ATOM      6  C2  UNL d          46.655  68.820  63.016  0.00  0.00    -0.022 C 
ATOM      7  C   UNL d          45.183  68.516  62.630  0.00  0.00     0.017 C 
ATOM      8  C1  UNL d          46.946  67.948  64.299  0.00  0.00     0.017 C 
ATOM      9  C4  UNL d          46.740  70.321  63.492  0.00  0.00     0.017 C 
ENDBRANCH   5   6
BRANCH   5  10
ATOM     10  C5  UNL d          47.888  66.962  61.490  0.00  0.00     0.240 C 
ATOM     11  O   UNL d          47.092  66.306  60.782  0.00  0.00    -0.271 OA
ATOM     12  N1  UNL d          49.010  66.444  62.060  0.00  0.00    -0.364 N 
ATOM     13  C6  UNL d          49.443  65.033  61.928  0.00  0.00     0.149 C 
ATOM     14  H11 UNL d          49.598  67.076  62.622  0.00  0.00     0.161 HD
ENDBRANCH   5  10
ENDBRANCH   1   5
BRANCH   3  15
ATOM     15  C10 UNL d          46.976  70.800  58.662  0.00  0.00     0.099 C 
BRANCH  15  16
ATOM     16  C9  UNL d          45.417  70.782  58.884  0.00  0.00     0.175 C 
BRANCH  16  17
ATOM     17  N2  UNL d          44.709  69.891  57.969  0.00  0.00    -0.199 N 
ATOM     18  O1  UNL d          44.423  70.356  56.808  0.00  0.00    -0.084 OA
BRANCH  17  19
ATOM     19  C14 UNL d          44.336  68.646  58.274  0.00  0.00     0.379 C 
ATOM     20  O2  UNL d          45.076  67.800  58.646  0.00  0.00    -0.281 OA
ENDBRANCH  17  19
ENDBRANCH  16  17
ENDBRANCH  15  16
BRANCH  15  21
ATOM     21  C11 UNL d          47.462  72.255  58.268  0.00  0.00     0.019 C 
BRANCH  21  22
ATOM     22  C8  UNL d          46.677  73.496  58.760  0.00  0.00    -0.022 C 
ATOM     23  C7  UNL d          47.527  74.307  59.765  0.00  0.00     0.009 C 
ATOM     24  C12 UNL d          46.450  74.436  57.590  0.00  0.00     0.009 C 
ENDBRANCH  21  22
ENDBRANCH  15  21
ENDBRANCH   3  15
TORSDOF 9
ENDMDL
MODEL 3
REMARK VINA RESULT:      -6.3      2.420      4.208
REMARK  9 active torsions:
REMARK  status: ('A' for Active; 'I' for Inactive)
REMARK    1  A    between atoms: C2_3  and  C3_4 
REMARK    2  A    between atoms: C3_4  and  C5_6 
REMARK    3  A    between atoms: C3_4  and  N_8 
REMARK       I    between atoms: C5_6  and  N1_10 
REMARK       I    between atoms: N_8  and  C13_19 
REMARK    4  A    between atoms: C8_14  and  C11_17 
REMARK    5  A    between atoms: C9_15  and  C10_16 
REMARK    6  A    between atoms: C9_15  and  N2_22 
REMARK    7  A    between atoms: C10_16  and  C11_17 
REMARK    8  A    between atoms: C10_16  and  C13_19 
REMARK    9  A    between atoms: C14_20  and  N2_22 
ROOT
ATOM      1  N   UNL d          46.505  69.142  61.243  0.00  0.00    -0.347 N 
ATOM      2  H10 UNL d          45.596  68.671  61.354  0.00  0.00     0.163 HD
ATOM      3  C13 UNL d          46.638  70.033  60.238  0.00  0.00     0.224 C 
ATOM      4  O3  UNL d          47.702  70.662  60.018  0.00  0.00    -0.273 OA
ENDROOT
BRANCH   1   5
ATOM      5  C3  UNL d          47.609  68.793  62.215  0.00  0.00     0.183 C 
BRANCH   5   6
ATOM      6  C2  UNL d          47.400  69.499  63.652  0.00  0.00    -0.022 C 
ATOM      7  C   UNL d          47.764  71.007  63.587  0.00  0.00     0.017 C 
ATOM      8  C1  UNL d          45.912  69.445  64.175  0.00  0.00     0.017 C 
ATOM      9  C4  UNL d          48.274  68.829  64.781  0.00  0.00     0.017 C 
ENDBRANCH   5   6
BRANCH   5  10
ATOM     10  C5  UNL d          47.686  67.200  62.262  0.00  0.00     0.240 C 
ATOM     11  O   UNL d          46.663  66.506  62.449  0.00  0.00    -0.271 OA
ATOM     12  N1  UNL d          48.934  66.689  62.075  0.00  0.00    -0.364 N 
ATOM     13  C6  UNL d          49.255  65.242  62.072  0.00  0.00     0.149 C 
ATOM     14  H11 UNL d          49.707  67.353  61.925  0.00  0.00     0.161 HD
ENDBRANCH   5  10
ENDBRANCH   1   5
BRANCH   3  15
ATOM     15  C10 UNL d          45.399  70.277  59.327  0.00  0.00     0.099 C 
BRANCH  15  16
ATOM     16  C9  UNL d          45.880  71.320  58.251  0.00  0.00     0.175 C 
BRANCH  16  17
ATOM     17  N2  UNL d          44.825  72.226  57.806  0.00  0.00    -0.199 N 
ATOM     18  O1  UNL d          44.395  73.082  58.660  0.00  0.00    -0.084 OA
BRANCH  17  19
ATOM     19  C14 UNL d          44.282  72.205  56.587  0.00  0.00     0.379 C 
ATOM     20  O2  UNL d          43.722  71.271  56.122  0.00  0.00    -0.281 OA
ENDBRANCH  17  19
ENDBRANCH  16  17
ENDBRANCH  15  16
BRANCH  15  21
ATOM     21  C11 UNL d          44.895  68.950  58.625  0.00  0.00     0.019 C 
BRANCH  21  22
ATOM     22  C8  UNL d          43.529  68.334  59.018  0.00  0.00    -0.022 C 
ATOM     23  C7  UNL d          43.519  67.961  60.518  0.00  0.00     0.009 C 
ATOM     24  C12 UNL d          42.446  69.387  58.867  0.00  0.00     0.009 C 
ENDBRANCH  21  22
ENDBRANCH  15  21
ENDBRANCH   3  15
TORSDOF 9
ENDMDL
