@<TRIPOS>MOLECULE
MOL
   51    50     1     0     0
SMALL
No Charge or Current Charge


@<TRIPOS>ATOM
      1 N1          46.5050    69.1420    61.2430 n          1 MOL       0.000000
      2 H1          45.5960    68.6710    61.3540 hn         1 MOL       0.000000
      3 C1          46.6380    70.0330    60.2380 c          1 MOL       0.000000
      4 O1          47.7020    70.6620    60.0180 o          1 MOL       0.000000
      5 C2          47.6090    68.7930    62.2150 c3         1 MOL       0.000000
      6 C3          47.4000    69.4990    63.6520 c3         1 MOL       0.000000
      7 C4          47.7640    71.0070    63.5870 c3         1 MOL       0.000000
      8 C5          45.9120    69.4450    64.1750 c3         1 MOL       0.000000
      9 C6          48.2740    68.8290    64.7810 c3         1 MOL       0.000000
     10 C7          47.6860    67.2000    62.2620 c          1 MOL       0.000000
     11 O2          46.6630    66.5060    62.4490 o          1 MOL       0.000000
     12 N2          48.9340    66.6890    62.0750 n          1 MOL       0.000000
     13 C8          49.2550    65.2420    62.0720 c3         1 MOL       0.000000
     14 H2          49.7070    67.3530    61.9250 hn         1 MOL       0.000000
     15 C9          45.3990    70.2770    59.3270 c3         1 MOL       0.000000
     16 C10         45.8800    71.3200    58.2510 c3         1 MOL       0.000000
     17 N3          44.8250    72.2260    57.8060 n          1 MOL       0.000000
     18 O3          44.3950    73.0820    58.6600 oh         1 MOL       0.000000
     19 C11         44.2820    72.2050    56.5870 c          1 MOL       0.000000
     20 O4          43.7220    71.2710    56.1220 o          1 MOL       0.000000
     21 C12         44.8950    68.9500    58.6250 c3         1 MOL       0.000000
     22 C13         43.5290    68.3340    59.0180 c3         1 MOL       0.000000
     23 C14         43.5190    67.9610    60.5180 c3         1 MOL       0.000000
     24 C15         42.4460    69.3870    58.8670 c3         1 MOL       0.000000
     25 H3          48.5540    69.1780    61.8930 h1         1 MOL       0.000000
     26 H4          47.1810    71.4820    62.8260 hc         1 MOL       0.000000
     27 H5          48.8040    71.1130    63.3590 hc         1 MOL       0.000000
     28 H6          47.5580    71.4650    64.5320 hc         1 MOL       0.000000
     29 H7          45.2630    69.8880    63.4490 hc         1 MOL       0.000000
     30 H8          45.8380    69.9850    65.0960 hc         1 MOL       0.000000
     31 H9          45.6270    68.4260    64.3350 hc         1 MOL       0.000000
     32 H10         49.3030    68.8340    64.4860 hc         1 MOL       0.000000
     33 H11         47.9510    67.8200    64.9310 hc         1 MOL       0.000000
     34 H12         48.1620    69.3790    65.6920 hc         1 MOL       0.000000
     35 H13         50.3030    65.1100    61.9050 h1         1 MOL       0.000000
     36 H14         48.7050    64.7560    61.2930 h1         1 MOL       0.000000
     37 H15         48.9880    64.8150    63.0160 h1         1 MOL       0.000000
     38 H16         44.5680    70.6290    59.9020 hc         1 MOL       0.000000
     39 H17         46.6710    71.9030    58.6740 h1         1 MOL       0.000000
     40 H18         46.2000    70.7640    57.3940 h1         1 MOL       0.000000
     41 H19         43.7010    73.6240    58.2530 ho         1 MOL       0.000000
     42 H20         44.3550    73.0590    56.0120 h5         1 MOL       0.000000
     43 H21         44.8510    69.1540    57.5750 hc         1 MOL       0.000000
     44 H22         45.5990    68.2150    58.9560 hc         1 MOL       0.000000
     45 H23         43.3660    67.4780    58.3970 hc         1 MOL       0.000000
     46 H24         43.6850    68.8400    61.1050 hc         1 MOL       0.000000
     47 H25         44.2940    67.2500    60.7140 hc         1 MOL       0.000000
     48 H26         42.5710    67.5350    60.7730 hc         1 MOL       0.000000
     49 H27         42.6610    70.2150    59.5100 hc         1 MOL       0.000000
     50 H28         41.4990    68.9660    59.1330 hc         1 MOL       0.000000
     51 H29         42.4140    69.7220    57.8520 hc         1 MOL       0.000000
@<TRIPOS>BOND
     1     1     2 1   
     2     1     5 1   
     3     3     1 1   
     4     4     3 2   
     5     5    10 1   
     6     5     6 1   
     7     5    25 1   
     8     6     8 1   
     9     6     9 1   
    10     7     6 1   
    11     7    26 1   
    12     7    27 1   
    13     7    28 1   
    14     8    29 1   
    15     8    30 1   
    16     8    31 1   
    17     9    32 1   
    18     9    33 1   
    19     9    34 1   
    20    10    11 2   
    21    12    10 1   
    22    13    12 1   
    23    13    35 1   
    24    13    36 1   
    25    13    37 1   
    26    14    12 1   
    27    15     3 1   
    28    15    38 1   
    29    16    15 1   
    30    16    39 1   
    31    16    40 1   
    32    17    16 1   
    33    17    18 1   
    34    18    41 1   
    35    19    17 1   
    36    19    42 1   
    37    20    19 2   
    38    21    22 1   
    39    21    15 1   
    40    21    43 1   
    41    21    44 1   
    42    22    23 1   
    43    22    45 1   
    44    23    46 1   
    45    23    47 1   
    46    23    48 1   
    47    24    22 1   
    48    24    49 1   
    49    24    50 1   
    50    24    51 1   
@<TRIPOS>SUBSTRUCTURE
     1 MOL         1 TEMP              0 ****  ****    0 ROOT
