@<TRIPOS>MOLECULE
MOL
   51    50     1     0     0
SMALL
No Charge or Current Charge


@<TRIPOS>ATOM
      1 N1          47.1620    69.1240    60.4890 n          1 MOL       0.000000
      2 H1          46.4640    68.6020    59.9400 hn         1 MOL       0.000000
      3 C1          47.5830    70.3150    60.0100 c          1 MOL       0.000000
      4 O1          48.4280    71.0290    60.6030 o          1 MOL       0.000000
      5 C2          47.6510    68.5120    61.7830 c3         1 MOL       0.000000
      6 C3          46.6550    68.8200    63.0160 c3         1 MOL       0.000000
      7 C4          45.1830    68.5160    62.6300 c3         1 MOL       0.000000
      8 C5          46.9460    67.9480    64.2990 c3         1 MOL       0.000000
      9 C6          46.7400    70.3210    63.4920 c3         1 MOL       0.000000
     10 C7          47.8880    66.9620    61.4900 c          1 MOL       0.000000
     11 O2          47.0920    66.3060    60.7820 o          1 MOL       0.000000
     12 N2          49.0100    66.4440    62.0600 n          1 MOL       0.000000
     13 C8          49.4430    65.0330    61.9280 c3         1 MOL       0.000000
     14 H2          49.5980    67.0760    62.6220 hn         1 MOL       0.000000
     15 C9          46.9760    70.8000    58.6620 c3         1 MOL       0.000000
     16 C10         45.4170    70.7820    58.8840 c3         1 MOL       0.000000
     17 N3          44.7090    69.8910    57.9690 n          1 MOL       0.000000
     18 O3          44.4230    70.3560    56.8080 oh         1 MOL       0.000000
     19 C11         44.3360    68.6460    58.2740 c          1 MOL       0.000000
     20 O4          45.0760    67.8000    58.6460 o          1 MOL       0.000000
     21 C12         47.4620    72.2550    58.2680 c3         1 MOL       0.000000
     22 C13         46.6770    73.4960    58.7600 c3         1 MOL       0.000000
     23 C14         47.5270    74.3070    59.7650 c3         1 MOL       0.000000
     24 C15         46.4500    74.4360    57.5900 c3         1 MOL       0.000000
     25 H3          48.5730    68.9500    62.1040 h1         1 MOL       0.000000
     26 H4          44.9190    69.0800    61.7600 hc         1 MOL       0.000000
     27 H5          44.5390    68.7870    63.4400 hc         1 MOL       0.000000
     28 H6          45.0770    67.4710    62.4240 hc         1 MOL       0.000000
     29 H7          46.9030    66.9100    64.0420 hc         1 MOL       0.000000
     30 H8          46.2130    68.1610    65.0490 hc         1 MOL       0.000000
     31 H9          47.9200    68.1820    64.6760 hc         1 MOL       0.000000
     32 H10         46.5510    70.9700    62.6620 hc         1 MOL       0.000000
     33 H11         47.7170    70.5170    63.8820 hc         1 MOL       0.000000
     34 H12         46.0100    70.4950    64.2550 hc         1 MOL       0.000000
     35 H13         48.7410    64.5000    61.3220 h1         1 MOL       0.000000
     36 H14         49.4910    64.5830    62.8970 h1         1 MOL       0.000000
     37 H15         50.4090    64.9980    61.4700 h1         1 MOL       0.000000
     38 H16         47.2870    70.1680    57.8570 hc         1 MOL       0.000000
     39 H17         45.2210    70.4630    59.8860 h1         1 MOL       0.000000
     40 H18         45.0610    71.7730    58.6970 h1         1 MOL       0.000000
     41 H19         43.9570    69.6780    56.2940 ho         1 MOL       0.000000
     42 H20         43.3370    68.4050    58.1790 h5         1 MOL       0.000000
     43 H21         47.4690    72.2990    57.1990 hc         1 MOL       0.000000
     44 H22         48.4020    72.3440    58.7720 hc         1 MOL       0.000000
     45 H23         45.7650    73.1520    59.2010 hc         1 MOL       0.000000
     46 H24         48.4280    74.6330    59.2890 hc         1 MOL       0.000000
     47 H25         47.7710    73.6910    60.6050 hc         1 MOL       0.000000
     48 H26         46.9710    75.1590    60.0970 hc         1 MOL       0.000000
     49 H27         47.3940    74.7450    57.1930 hc         1 MOL       0.000000
     50 H28         45.9050    75.2940    57.9230 hc         1 MOL       0.000000
     51 H29         45.8910    73.9310    56.8300 hc         1 MOL       0.000000
@<TRIPOS>BOND
     1     1     5 1   
     2     2     1 1   
     3     3     1 1   
     4     3     4 2   
     5     5     6 1   
     6     5    25 1   
     7     6     9 1   
     8     6     8 1   
     9     7     6 1   
    10     7    26 1   
    11     7    27 1   
    12     7    28 1   
    13     8    29 1   
    14     8    30 1   
    15     8    31 1   
    16     9    32 1   
    17     9    33 1   
    18     9    34 1   
    19    10     5 1   
    20    10    12 1   
    21    11    10 2   
    22    12    14 1   
    23    13    12 1   
    24    13    35 1   
    25    13    36 1   
    26    13    37 1   
    27    15    16 1   
    28    15     3 1   
    29    15    38 1   
    30    16    39 1   
    31    16    40 1   
    32    17    19 1   
    33    17    16 1   
    34    18    17 1   
    35    18    41 1   
    36    19    20 2   
    37    19    42 1   
    38    21    15 1   
    39    21    22 1   
    40    21    43 1   
    41    21    44 1   
    42    22    23 1   
    43    22    45 1   
    44    23    46 1   
    45    23    47 1   
    46    23    48 1   
    47    24    22 1   
    48    24    49 1   
    49    24    50 1   
    50    24    51 1   
@<TRIPOS>SUBSTRUCTURE
     1 MOL         1 TEMP              0 ****  ****    0 ROOT
