@<TRIPOS>MOLECULE
MOL
   51    53     1     0     0
SMALL
No Charge or Current Charge


@<TRIPOS>ATOM
      1 C1          38.5380    28.6200    56.3170 cc         1 MOL       0.000000
      2 N1          37.8690    28.1610    57.4770 n          1 MOL       0.000000
      3 C2          38.4100    27.1320    58.2820 c          1 MOL       0.000000
      4 O1          37.8840    26.7270    59.3170 o          1 MOL       0.000000
      5 N2          39.6170    26.6030    57.8630 n          1 MOL       0.000000
      6 H1          40.0160    25.8490    58.4400 hn         1 MOL       0.000000
      7 C3          40.3480    26.9850    56.7420 c          1 MOL       0.000000
      8 O2          41.4100    26.4200    56.4850 o          1 MOL       0.000000
      9 C4          39.7800    28.0500    55.9390 cd         1 MOL       0.000000
     10 C5          36.5970    28.7820    57.9580 c3         1 MOL       0.000000
     11 O3          36.8690    29.7650    58.9420 os         1 MOL       0.000000
     12 C6          36.4720    31.0600    58.5240 c3         1 MOL       0.000000
     13 C7          35.3600    31.5780    59.3820 ca         1 MOL       0.000000
     14 C8          35.5890    32.6460    60.2710 ca         1 MOL       0.000000
     15 C9          34.5210    33.2120    60.9930 ca         1 MOL       0.000000
     16 C10         33.2160    32.7000    60.8210 ca         1 MOL       0.000000
     17 C11         32.9920    31.6230    59.9290 ca         1 MOL       0.000000
     18 C12         34.0710    31.0650    59.2140 ca         1 MOL       0.000000
     19 C13         37.8800    29.7740    55.5400 c3         1 MOL       0.000000
     20 C14         38.5550    31.1340    55.4400 ca         1 MOL       0.000000
     21 C15         38.3480    31.9110    54.2880 ca         1 MOL       0.000000
     22 C16         38.8820    33.2240    54.2160 ca         1 MOL       0.000000
     23 C17         39.6270    33.7500    55.3070 ca         1 MOL       0.000000
     24 C18         39.8370    32.9650    56.4580 ca         1 MOL       0.000000
     25 C19         39.3000    31.6570    56.5180 ca         1 MOL       0.000000
     26 C20         40.6940    28.5150    54.7870 c3         1 MOL       0.000000
     27 C21         40.8920    27.4830    53.6600 c3         1 MOL       0.000000
     28 C22         41.9410    29.2480    55.2360 c3         1 MOL       0.000000
     29 H2          35.9720    28.0230    58.3810 h2         1 MOL       0.000000
     30 H3          36.1030    29.2460    57.1300 h2         1 MOL       0.000000
     31 H4          36.1390    31.0140    57.5080 h1         1 MOL       0.000000
     32 H5          37.3090    31.7210    58.6120 h1         1 MOL       0.000000
     33 H6          36.5450    33.0160    60.3940 ha         1 MOL       0.000000
     34 H7          34.6910    33.9950    61.6430 ha         1 MOL       0.000000
     35 H8          32.4270    33.1100    61.3440 ha         1 MOL       0.000000
     36 H9          32.0390    31.2470    59.8030 ha         1 MOL       0.000000
     37 H10         33.9090    30.2780    58.5670 ha         1 MOL       0.000000
     38 H11         37.7440    29.4270    54.5370 hc         1 MOL       0.000000
     39 H12         37.0080    29.9850    56.1240 hc         1 MOL       0.000000
     40 H13         37.8090    31.5280    53.4960 ha         1 MOL       0.000000
     41 H14         38.7300    33.7970    53.3710 ha         1 MOL       0.000000
     42 H15         40.0130    34.7060    55.2560 ha         1 MOL       0.000000
     43 H16         40.3790    33.3410    57.2520 ha         1 MOL       0.000000
     44 H17         39.4550    31.0800    57.3590 ha         1 MOL       0.000000
     45 H18         40.1300    29.2810    54.2970 hc         1 MOL       0.000000
     46 H19         41.4540    26.6520    54.0320 hc         1 MOL       0.000000
     47 H20         41.4220    27.9380    52.8490 hc         1 MOL       0.000000
     48 H21         39.9380    27.1430    53.3160 hc         1 MOL       0.000000
     49 H22         42.5900    28.5680    55.7470 hc         1 MOL       0.000000
     50 H23         41.6680    30.0450    55.8960 hc         1 MOL       0.000000
     51 H24         42.4460    29.6490    54.3820 hc         1 MOL       0.000000
@<TRIPOS>BOND
     1     1     2 1   
     2     2    10 1   
     3     2     3 1   
     4     3     4 2   
     5     5     3 1   
     6     5     6 1   
     7     7     5 1   
     8     8     7 2   
     9     9     1 2   
    10     9     7 1   
    11    10    11 1   
    12    10    29 1   
    13    10    30 1   
    14    12    11 1   
    15    12    13 1   
    16    12    31 1   
    17    12    32 1   
    18    13    14 ar  
    19    14    15 ar  
    20    14    33 1   
    21    15    34 1   
    22    16    15 ar  
    23    16    35 1   
    24    17    16 ar  
    25    17    36 1   
    26    18    13 ar  
    27    18    17 ar  
    28    18    37 1   
    29    19     1 1   
    30    19    38 1   
    31    19    39 1   
    32    20    19 1   
    33    20    25 ar  
    34    21    20 ar  
    35    21    40 1   
    36    22    21 ar  
    37    22    23 ar  
    38    22    41 1   
    39    23    24 ar  
    40    23    42 1   
    41    24    25 ar  
    42    24    43 1   
    43    25    44 1   
    44    26    28 1   
    45    26     9 1   
    46    26    45 1   
    47    27    26 1   
    48    27    46 1   
    49    27    47 1   
    50    27    48 1   
    51    28    49 1   
    52    28    50 1   
    53    28    51 1   
@<TRIPOS>SUBSTRUCTURE
     1 MOL         1 TEMP              0 ****  ****    0 ROOT
