@<TRIPOS>MOLECULE
MOL
   51    53     1     0     0
SMALL
No Charge or Current Charge


@<TRIPOS>ATOM
      1 C1          38.3920    30.4950    56.1410 cc         1 MOL       0.000000
      2 N1          37.1760    30.1820    56.7940 n          1 MOL       0.000000
      3 C2          36.8350    28.8480    57.1170 c          1 MOL       0.000000
      4 O1          35.8090    28.5310    57.7170 o          1 MOL       0.000000
      5 N2          37.7530    27.8800    56.7510 n          1 MOL       0.000000
      6 H1          37.5110    26.9050    56.9780 hn         1 MOL       0.000000
      7 C3          38.9700    28.0880    56.1080 c          1 MOL       0.000000
      8 O2          39.6870    27.1270    55.8360 o          1 MOL       0.000000
      9 C4          39.3030    29.4640    55.7980 cd         1 MOL       0.000000
     10 C5          36.2200    31.2390    57.2420 c3         1 MOL       0.000000
     11 O3          36.5950    31.7350    58.5160 os         1 MOL       0.000000
     12 C6          35.7820    31.2100    59.5520 c3         1 MOL       0.000000
     13 C7          35.0010    32.2990    60.2190 ca         1 MOL       0.000000
     14 C8          33.5990    32.2090    60.3150 ca         1 MOL       0.000000
     15 C9          32.8730    33.1710    61.0420 ca         1 MOL       0.000000
     16 C10         33.5610    34.2300    61.6760 ca         1 MOL       0.000000
     17 C11         34.9700    34.3180    61.5720 ca         1 MOL       0.000000
     18 C12         35.6840    33.3480    60.8400 ca         1 MOL       0.000000
     19 C13         38.6800    31.9840    55.8750 c3         1 MOL       0.000000
     20 C14         38.7700    32.5210    54.4550 ca         1 MOL       0.000000
     21 C15         39.6630    33.5700    54.1810 ca         1 MOL       0.000000
     22 C16         39.8400    34.0180    52.8460 ca         1 MOL       0.000000
     23 C17         39.1110    33.4080    51.7880 ca         1 MOL       0.000000
     24 C18         38.2120    32.3590    52.0680 ca         1 MOL       0.000000
     25 C19         38.0440    31.9210    53.4030 ca         1 MOL       0.000000
     26 C20         40.7150    29.6420    55.2030 c3         1 MOL       0.000000
     27 C21         41.5370    30.7900    55.8190 c3         1 MOL       0.000000
     28 C22         40.7760    29.5220    53.6950 c3         1 MOL       0.000000
     29 H2          35.2360    30.8230    57.3010 h2         1 MOL       0.000000
     30 H3          36.2360    32.0440    56.5370 h2         1 MOL       0.000000
     31 H4          36.4050    30.7300    60.2780 h1         1 MOL       0.000000
     32 H5          35.0960    30.5070    59.1270 h1         1 MOL       0.000000
     33 H6          33.1010    31.4340    59.8500 ha         1 MOL       0.000000
     34 H7          31.8460    33.1030    61.1110 ha         1 MOL       0.000000
     35 H8          33.0370    34.9380    62.2140 ha         1 MOL       0.000000
     36 H9          35.4740    35.0920    62.0320 ha         1 MOL       0.000000
     37 H10         36.7110    33.4130    60.7630 ha         1 MOL       0.000000
     38 H11         37.9030    32.5360    56.3610 hc         1 MOL       0.000000
     39 H12         39.6810    32.0990    56.2350 hc         1 MOL       0.000000
     40 H13         40.1900    34.0140    54.9490 ha         1 MOL       0.000000
     41 H14         40.4980    34.7870    52.6430 ha         1 MOL       0.000000
     42 H15         39.2400    33.7330    50.8170 ha         1 MOL       0.000000
     43 H16         37.6800    31.9130    51.3040 ha         1 MOL       0.000000
     44 H17         37.3840    31.1550    53.6100 ha         1 MOL       0.000000
     45 H18         41.2510    28.7770    55.5330 hc         1 MOL       0.000000
     46 H19         41.0940    31.7270    55.5560 hc         1 MOL       0.000000
     47 H20         42.5390    30.7520    55.4450 hc         1 MOL       0.000000
     48 H21         41.5500    30.6880    56.8840 hc         1 MOL       0.000000
     49 H22         40.2620    30.3490    53.2500 hc         1 MOL       0.000000
     50 H23         40.3110    28.6080    53.3910 hc         1 MOL       0.000000
     51 H24         41.7980    29.5250    53.3780 hc         1 MOL       0.000000
@<TRIPOS>BOND
     1     1     2 1   
     2     2     3 1   
     3     2    10 1   
     4     3     4 2   
     5     5     6 1   
     6     5     3 1   
     7     7     5 1   
     8     8     7 2   
     9     9     7 1   
    10     9     1 2   
    11    10    11 1   
    12    10    29 1   
    13    10    30 1   
    14    11    12 1   
    15    12    13 1   
    16    12    31 1   
    17    12    32 1   
    18    13    14 ar  
    19    13    18 ar  
    20    14    15 ar  
    21    14    33 1   
    22    15    16 ar  
    23    15    34 1   
    24    16    35 1   
    25    17    16 ar  
    26    17    36 1   
    27    18    17 ar  
    28    18    37 1   
    29    19     1 1   
    30    19    38 1   
    31    19    39 1   
    32    20    19 1   
    33    21    20 ar  
    34    21    40 1   
    35    22    21 ar  
    36    22    41 1   
    37    23    24 ar  
    38    23    22 ar  
    39    23    42 1   
    40    24    25 ar  
    41    24    43 1   
    42    25    20 ar  
    43    25    44 1   
    44    26     9 1   
    45    26    27 1   
    46    26    45 1   
    47    27    46 1   
    48    27    47 1   
    49    27    48 1   
    50    28    26 1   
    51    28    49 1   
    52    28    50 1   
    53    28    51 1   
@<TRIPOS>SUBSTRUCTURE
     1 MOL         1 TEMP              0 ****  ****    0 ROOT
