MODEL 1
REMARK VINA RESULT:      -8.9      0.000      0.000
REMARK  7 active torsions:
REMARK  status: ('A' for Active; 'I' for Inactive)
REMARK    1  A    between atoms: C_1  and  C10_16 
REMARK    2  A    between atoms: C6_7  and  C10_16 
REMARK    3  A    between atoms: N_8  and  C14_20 
REMARK    4  A    between atoms: C9_15  and  C11_17 
REMARK    5  A    between atoms: C14_20  and  O2_21 
REMARK    6  A    between atoms: O2_21  and  C15_22 
REMARK    7  A    between atoms: C15_22  and  C16_23 
ROOT
ATOM      1  C6  UNL d          38.196  30.235  55.844  0.00  0.00     0.035 A 
ATOM      2  N   UNL d          37.194  29.917  56.792  0.00  0.00    -0.280 N 
ATOM      3  C7  UNL d          37.148  28.650  57.419  0.00  0.00     0.331 A 
ATOM      4  O   UNL d          36.320  28.341  58.274  0.00  0.00    -0.246 OA
ATOM      5  N1  UNL d          38.130  27.751  57.046  0.00  0.00    -0.275 N 
ATOM      6  H5  UNL d          38.101  26.824  57.494  0.00  0.00     0.173 HD
ATOM      7  C8  UNL d          39.152  27.969  56.127  0.00  0.00     0.257 A 
ATOM      8  O1  UNL d          39.957  27.071  55.885  0.00  0.00    -0.267 OA
ATOM      9  C9  UNL d          39.186  29.278  55.506  0.00  0.00     0.037 A 
ENDROOT
BRANCH   2  10
ATOM     10  C14 UNL d          36.175  30.916  57.236  0.00  0.00     0.303 C 
BRANCH  10  11
ATOM     11  O2  UNL d          36.662  31.658  58.341  0.00  0.00    -0.367 OA
BRANCH  11  12
ATOM     12  C15 UNL d          36.163  31.167  59.574  0.00  0.00     0.208 C 
BRANCH  12  13
ATOM     13  C16 UNL d          35.075  32.051  60.098  0.00  0.00    -0.035 A 
ATOM     14  C17 UNL d          33.726  31.670  59.962  0.00  0.00     0.009 A 
ATOM     15  C18 UNL d          32.707  32.440  60.554  0.00  0.00     0.001 A 
ATOM     16  C19 UNL d          33.046  33.600  61.286  0.00  0.00     0.000 A 
ATOM     17  C20 UNL d          34.404  33.981  61.414  0.00  0.00     0.001 A 
ATOM     18  C21 UNL d          35.414  33.201  60.815  0.00  0.00     0.009 A 
ENDBRANCH  12  13
ENDBRANCH  11  12
ENDBRANCH  10  11
ENDBRANCH   2  10
BRANCH   1  19
ATOM     19  C10 UNL d          38.176  31.658  55.255  0.00  0.00     0.096 C 
BRANCH  19  20
ATOM     20  C   UNL d          39.400  32.557  55.344  0.00  0.00    -0.053 A 
ATOM     21  C1  UNL d          40.007  32.755  56.595  0.00  0.00     0.007 A 
ATOM     22  C2  UNL d          41.209  33.505  56.686  0.00  0.00     0.001 A 
ATOM     23  C3  UNL d          41.794  34.057  55.514  0.00  0.00     0.000 A 
ATOM     24  C4  UNL d          41.178  33.861  54.261  0.00  0.00     0.001 A 
ATOM     25  C5  UNL d          39.980  33.112  54.183  0.00  0.00     0.007 A 
ENDBRANCH  19  20
ENDBRANCH   1  19
BRANCH   9  26
ATOM     26  C11 UNL d          40.412  29.503  54.596  0.00  0.00     0.018 C 
ATOM     27  C12 UNL d          40.426  28.659  53.308  0.00  0.00     0.015 C 
ATOM     28  C13 UNL d          41.729  29.599  55.337  0.00  0.00     0.015 C 
ENDBRANCH   9  26
TORSDOF 7
ENDMDL
MODEL 2
REMARK VINA RESULT:      -8.8      1.059      1.819
REMARK  7 active torsions:
REMARK  status: ('A' for Active; 'I' for Inactive)
REMARK    1  A    between atoms: C_1  and  C10_16 
REMARK    2  A    between atoms: C6_7  and  C10_16 
REMARK    3  A    between atoms: N_8  and  C14_20 
REMARK    4  A    between atoms: C9_15  and  C11_17 
REMARK    5  A    between atoms: C14_20  and  O2_21 
REMARK    6  A    between atoms: O2_21  and  C15_22 
REMARK    7  A    between atoms: C15_22  and  C16_23 
ROOT
ATOM      1  C6  UNL d          38.392  30.495  56.141  0.00  0.00     0.035 A 
ATOM      2  N   UNL d          37.176  30.182  56.794  0.00  0.00    -0.280 N 
ATOM      3  C7  UNL d          36.835  28.848  57.117  0.00  0.00     0.331 A 
ATOM      4  O   UNL d          35.809  28.531  57.717  0.00  0.00    -0.246 OA
ATOM      5  N1  UNL d          37.753  27.880  56.751  0.00  0.00    -0.275 N 
ATOM      6  H5  UNL d          37.511  26.905  56.978  0.00  0.00     0.173 HD
ATOM      7  C8  UNL d          38.970  28.088  56.108  0.00  0.00     0.257 A 
ATOM      8  O1  UNL d          39.687  27.127  55.836  0.00  0.00    -0.267 OA
ATOM      9  C9  UNL d          39.303  29.464  55.798  0.00  0.00     0.037 A 
ENDROOT
BRANCH   2  10
ATOM     10  C14 UNL d          36.220  31.239  57.242  0.00  0.00     0.303 C 
BRANCH  10  11
ATOM     11  O2  UNL d          36.595  31.735  58.516  0.00  0.00    -0.367 OA
BRANCH  11  12
ATOM     12  C15 UNL d          35.782  31.210  59.552  0.00  0.00     0.208 C 
BRANCH  12  13
ATOM     13  C16 UNL d          35.001  32.299  60.219  0.00  0.00    -0.035 A 
ATOM     14  C17 UNL d          33.599  32.209  60.315  0.00  0.00     0.009 A 
ATOM     15  C18 UNL d          32.873  33.171  61.042  0.00  0.00     0.001 A 
ATOM     16  C19 UNL d          33.561  34.230  61.676  0.00  0.00     0.000 A 
ATOM     17  C20 UNL d          34.970  34.318  61.572  0.00  0.00     0.001 A 
ATOM     18  C21 UNL d          35.684  33.348  60.840  0.00  0.00     0.009 A 
ENDBRANCH  12  13
ENDBRANCH  11  12
ENDBRANCH  10  11
ENDBRANCH   2  10
BRANCH   1  19
ATOM     19  C10 UNL d          38.680  31.984  55.875  0.00  0.00     0.096 C 
BRANCH  19  20
ATOM     20  C   UNL d          38.770  32.521  54.455  0.00  0.00    -0.053 A 
ATOM     21  C1  UNL d          39.663  33.570  54.181  0.00  0.00     0.007 A 
ATOM     22  C2  UNL d          39.840  34.018  52.846  0.00  0.00     0.001 A 
ATOM     23  C3  UNL d          39.111  33.408  51.788  0.00  0.00     0.000 A 
ATOM     24  C4  UNL d          38.212  32.359  52.068  0.00  0.00     0.001 A 
ATOM     25  C5  UNL d          38.044  31.921  53.403  0.00  0.00     0.007 A 
ENDBRANCH  19  20
ENDBRANCH   1  19
BRANCH   9  26
ATOM     26  C11 UNL d          40.715  29.642  55.203  0.00  0.00     0.018 C 
ATOM     27  C12 UNL d          41.537  30.790  55.819  0.00  0.00     0.015 C 
ATOM     28  C13 UNL d          40.776  29.522  53.695  0.00  0.00     0.015 C 
ENDBRANCH   9  26
TORSDOF 7
ENDMDL
MODEL 3
REMARK VINA RESULT:      -7.8      1.225      2.103
REMARK  7 active torsions:
REMARK  status: ('A' for Active; 'I' for Inactive)
REMARK    1  A    between atoms: C_1  and  C10_16 
REMARK    2  A    between atoms: C6_7  and  C10_16 
REMARK    3  A    between atoms: N_8  and  C14_20 
REMARK    4  A    between atoms: C9_15  and  C11_17 
REMARK    5  A    between atoms: C14_20  and  O2_21 
REMARK    6  A    between atoms: O2_21  and  C15_22 
REMARK    7  A    between atoms: C15_22  and  C16_23 
ROOT
ATOM      1  C6  UNL d          38.538  28.620  56.317  0.00  0.00     0.035 A 
ATOM      2  N   UNL d          37.869  28.161  57.477  0.00  0.00    -0.280 N 
ATOM      3  C7  UNL d          38.410  27.132  58.282  0.00  0.00     0.331 A 
ATOM      4  O   UNL d          37.884  26.727  59.317  0.00  0.00    -0.246 OA
ATOM      5  N1  UNL d          39.617  26.603  57.863  0.00  0.00    -0.275 N 
ATOM      6  H5  UNL d          40.016  25.849  58.440  0.00  0.00     0.173 HD
ATOM      7  C8  UNL d          40.348  26.985  56.742  0.00  0.00     0.257 A 
ATOM      8  O1  UNL d          41.410  26.420  56.485  0.00  0.00    -0.267 OA
ATOM      9  C9  UNL d          39.780  28.050  55.939  0.00  0.00     0.037 A 
ENDROOT
BRANCH   2  10
ATOM     10  C14 UNL d          36.597  28.782  57.958  0.00  0.00     0.303 C 
BRANCH  10  11
ATOM     11  O2  UNL d          36.869  29.765  58.942  0.00  0.00    -0.367 OA
BRANCH  11  12
ATOM     12  C15 UNL d          36.472  31.060  58.524  0.00  0.00     0.208 C 
BRANCH  12  13
ATOM     13  C16 UNL d          35.360  31.578  59.382  0.00  0.00    -0.035 A 
ATOM     14  C17 UNL d          35.589  32.646  60.271  0.00  0.00     0.009 A 
ATOM     15  C18 UNL d          34.521  33.212  60.993  0.00  0.00     0.001 A 
ATOM     16  C19 UNL d          33.216  32.700  60.821  0.00  0.00     0.000 A 
ATOM     17  C20 UNL d          32.992  31.623  59.929  0.00  0.00     0.001 A 
ATOM     18  C21 UNL d          34.071  31.065  59.214  0.00  0.00     0.009 A 
ENDBRANCH  12  13
ENDBRANCH  11  12
ENDBRANCH  10  11
ENDBRANCH   2  10
BRANCH   1  19
ATOM     19  C10 UNL d          37.880  29.774  55.540  0.00  0.00     0.096 C 
BRANCH  19  20
ATOM     20  C   UNL d          38.555  31.134  55.440  0.00  0.00    -0.053 A 
ATOM     21  C1  UNL d          38.348  31.911  54.288  0.00  0.00     0.007 A 
ATOM     22  C2  UNL d          38.882  33.224  54.216  0.00  0.00     0.001 A 
ATOM     23  C3  UNL d          39.627  33.750  55.307  0.00  0.00     0.000 A 
ATOM     24  C4  UNL d          39.837  32.965  56.458  0.00  0.00     0.001 A 
ATOM     25  C5  UNL d          39.300  31.657  56.518  0.00  0.00     0.007 A 
ENDBRANCH  19  20
ENDBRANCH   1  19
BRANCH   9  26
ATOM     26  C11 UNL d          40.694  28.515  54.787  0.00  0.00     0.018 C 
ATOM     27  C12 UNL d          40.892  27.483  53.660  0.00  0.00     0.015 C 
ATOM     28  C13 UNL d          41.941  29.248  55.236  0.00  0.00     0.015 C 
ENDBRANCH   9  26
TORSDOF 7
ENDMDL
