@<TRIPOS>MOLECULE
MOL
   33    31     1     0     0
SMALL
No Charge or Current Charge


@<TRIPOS>ATOM
      1 N1           5.2960    30.5940    17.9060 n4         1 MOL       0.000000
      2 H1           5.1150    30.8480    18.8600 hn         1 MOL       0.000000
      3 H2           6.0330    31.2000    17.5070 hn         1 MOL       0.000000
      4 C1           4.0220    30.6280    17.0480 c3         1 MOL       0.000000
      5 C2           5.9330    29.3000    17.7270 c1         1 MOL       0.000000
      6 H3           6.3860    29.0080    18.6930 hx         1 MOL       0.000000
      7 C3           4.8340    28.3610    17.2980 c3         1 MOL       0.000000
      8 C4           4.0830    29.2080    16.3160 c3         1 MOL       0.000000
      9 C5           7.1780    29.3460    16.7590 c          1 MOL       0.000000
     10 O1           7.7450    28.2480    16.5680 o          1 MOL       0.000000
     11 O2           7.4580    30.4730    16.2470 oh         1 MOL       0.000000
     12 C6           3.8570    27.8140    18.4520 c3         1 MOL       0.000000
     13 C7           4.5340    27.8430    19.8290 c          1 MOL       0.000000
     14 O3           5.7560    28.0450    19.7960 o          1 MOL       0.000000
     15 O4           3.8460    27.6720    20.8590 oh         1 MOL       0.000000
     16 C8           2.7550    28.6200    15.6870 c2         1 MOL       0.000000
     17 C9           1.6600    29.2740    15.8810 c2         1 MOL       0.000000
     18 C10          2.8360    27.3600    14.9120 c3         1 MOL       0.000000
     19 H4           3.1460    30.7160    17.6550 hx         1 MOL       0.000000
     20 H5           3.9740    31.4600    16.3770 hx         1 MOL       0.000000
     21 H6           5.6090    28.9470    17.7450 hc         1 MOL       0.000000
     22 H7           5.2500    27.5230    16.7780 hc         1 MOL       0.000000
     23 H8           4.5800    29.2720    15.3700 hc         1 MOL       0.000000
     24 H9           6.3820    29.3340    17.4160 h5         1 MOL       0.000000
     25 H10          6.9520    31.2290    16.4730 ho         1 MOL       0.000000
     26 H11          3.5800    26.8060    18.2230 hc         1 MOL       0.000000
     27 H12          2.9970    28.4490    18.4900 hc         1 MOL       0.000000
     28 H13          2.9230    27.5250    20.7870 ho         1 MOL       0.000000
     29 H14          0.7730    28.9230    15.4870 ha         1 MOL       0.000000
     30 H15          1.6710    30.1480    16.4300 ha         1 MOL       0.000000
     31 H16          1.8620    27.0970    14.5560 hc         1 MOL       0.000000
     32 H17          3.2090    26.5780    15.5400 hc         1 MOL       0.000000
     33 H18          3.4950    27.4950    14.0800 hc         1 MOL       0.000000
@<TRIPOS>BOND
     1     1     2 1   
     2     3     1 1   
     3     4     1 1   
     4     4    19 1   
     5     4    20 1   
     6     5     1 1   
     7     5     6 1   
     8     7    12 1   
     9     7    21 1   
    10     7    22 1   
    11     8     4 1   
    12     8     7 1   
    13     8    23 1   
    14     9    24 1   
    15    10     9 2   
    16    11     9 1   
    17    11    25 1   
    18    12    13 1   
    19    12    26 1   
    20    12    27 1   
    21    13    15 1   
    22    14    13 2   
    23    15    28 1   
    24    16    17 2   
    25    16     8 1   
    26    17    29 1   
    27    17    30 1   
    28    18    16 1   
    29    18    31 1   
    30    18    32 1   
    31    18    33 1   
@<TRIPOS>SUBSTRUCTURE
     1 MOL         1 TEMP              0 ****  ****    0 ROOT
