@<TRIPOS>MOLECULE
MOL
   33    31     1     0     0
SMALL
No Charge or Current Charge


@<TRIPOS>ATOM
      1 N1           3.6690    26.8240    19.3060 n4         1 MOL       0.000000
      2 H1           4.2100    25.9800    19.2530 hn         1 MOL       0.000000
      3 H2           2.8890    26.7090    19.9750 hn         1 MOL       0.000000
      4 C1           3.1590    27.2680    17.9260 c3         1 MOL       0.000000
      5 C2           4.3480    27.9490    19.9260 c1         1 MOL       0.000000
      6 H3           5.2000    27.5520    20.5100 hx         1 MOL       0.000000
      7 C3           4.7900    28.8350    18.7880 c3         1 MOL       0.000000
      8 C4           3.5820    28.8090    17.9020 c3         1 MOL       0.000000
      9 C5           3.4800    28.6720    21.0270 c          1 MOL       0.000000
     10 O1           2.4390    28.0670    21.3670 o          1 MOL       0.000000
     11 O2           3.9350    29.7650    21.4820 oh         1 MOL       0.000000
     12 C6           6.1050    28.3770    17.9840 c3         1 MOL       0.000000
     13 C7           7.1680    27.7900    18.9220 c          1 MOL       0.000000
     14 O3           6.7540    27.5050    20.0540 oh         1 MOL       0.000000
     15 O4           8.3400    27.6380    18.5090 o          1 MOL       0.000000
     16 C8           3.6660    29.5520    16.5070 c2         1 MOL       0.000000
     17 C9           3.7290    30.8400    16.5170 c2         1 MOL       0.000000
     18 C10          3.6710    28.7360    15.2700 c3         1 MOL       0.000000
     19 H4           3.6360    26.7210    17.1400 hx         1 MOL       0.000000
     20 H5           2.1120    27.1030    17.7770 hx         1 MOL       0.000000
     21 H6           4.6340    28.1700    19.6120 hc         1 MOL       0.000000
     22 H7           4.9350    29.8360    19.1370 hc         1 MOL       0.000000
     23 H8           2.7970    29.4390    18.2650 hc         1 MOL       0.000000
     24 H9           4.0390    28.2260    20.2830 h5         1 MOL       0.000000
     25 H10          4.7330    30.1180    21.1410 ho         1 MOL       0.000000
     26 H11          6.5170    29.2270    17.4810 hc         1 MOL       0.000000
     27 H12          5.8210    27.6180    17.2850 hc         1 MOL       0.000000
     28 H13          5.8560    27.6540    20.2760 ho         1 MOL       0.000000
     29 H14          3.7850    31.3610    15.6280 ha         1 MOL       0.000000
     30 H15          3.7240    31.3500    17.4140 ha         1 MOL       0.000000
     31 H16          3.7310    29.3800    14.4180 hc         1 MOL       0.000000
     32 H17          2.7710    28.1600    15.2190 hc         1 MOL       0.000000
     33 H18          4.5150    28.0780    15.2800 hc         1 MOL       0.000000
@<TRIPOS>BOND
     1     1     5 1   
     2     1     3 1   
     3     2     1 1   
     4     4     1 1   
     5     4    19 1   
     6     4    20 1   
     7     5     6 1   
     8     7    21 1   
     9     7    22 1   
    10     8     4 1   
    11     8     7 1   
    12     8    23 1   
    13     9    10 2   
    14     9    11 1   
    15     9    24 1   
    16    11    25 1   
    17    12     7 1   
    18    12    13 1   
    19    12    26 1   
    20    12    27 1   
    21    13    14 1   
    22    14    28 1   
    23    15    13 2   
    24    16    17 2   
    25    16     8 1   
    26    17    29 1   
    27    17    30 1   
    28    18    16 1   
    29    18    31 1   
    30    18    32 1   
    31    18    33 1   
@<TRIPOS>SUBSTRUCTURE
     1 MOL         1 TEMP              0 ****  ****    0 ROOT
