@<TRIPOS>MOLECULE
MOL
   45    48     1     0     0
SMALL
No Charge or Current Charge


@<TRIPOS>ATOM
      1 C1          47.0170     2.5260    -7.0860 ca         1 MOL       0.000000
      2 N1          47.4890     1.5210    -6.2590 nb         1 MOL       0.000000
      3 C2          48.8240     1.3770    -6.1730 ca         1 MOL       0.000000
      4 C3          49.7420     2.1970    -6.8880 ca         1 MOL       0.000000
      5 C4          51.1680     2.0550    -6.8100 cc         1 MOL       0.000000
      6 C5          51.9910     2.8770    -7.5230 cd         1 MOL       0.000000
      7 C6          51.4230     3.9810    -8.3820 c          1 MOL       0.000000
      8 O1          52.0840     4.7740    -9.0550 o          1 MOL       0.000000
      9 N2          49.9880     4.0870    -8.4380 n          1 MOL       0.000000
     10 C7          49.1580     3.2380    -7.7040 ca         1 MOL       0.000000
     11 N3          47.8100     3.3690    -7.8000 nb         1 MOL       0.000000
     12 C8          49.3570     5.1460    -9.2640 c3         1 MOL       0.000000
     13 N4          45.6550     2.6110    -7.1660 nh         1 MOL       0.000000
     14 H1          45.1740     2.9810    -6.3340 hn         1 MOL       0.000000
     15 C9          44.8240     2.2500    -8.2590 ca         1 MOL       0.000000
     16 C10         43.3940     2.3570    -8.2650 ca         1 MOL       0.000000
     17 C11         42.6630     1.9900    -9.4370 ca         1 MOL       0.000000
     18 C12         43.3370     1.5300   -10.5860 ca         1 MOL       0.000000
     19 C13         44.7730     1.4210   -10.5920 ca         1 MOL       0.000000
     20 C14         45.5030     1.7810    -9.4340 ca         1 MOL       0.000000
     21 C15         45.4990     0.9320   -11.8360 c3         1 MOL       0.000000
     22 O2          45.3350     1.7830   -12.9350 oh         1 MOL       0.000000
     23 H2          45.8720     1.4190   -13.7340 ho         1 MOL       0.000000
     24 C16         53.4630     2.7490    -7.4840 ca         1 MOL       0.000000
     25 C17         54.2560     3.4720    -6.5490 ca         1 MOL       0.000000
     26 Cl1         53.4890     4.5030    -5.3640 cl         1 MOL       0.000000
     27 C18         55.6850     3.3450    -6.5440 ca         1 MOL       0.000000
     28 C19         56.3320     2.5100    -7.5010 ca         1 MOL       0.000000
     29 C20         55.5640     1.7690    -8.4480 ca         1 MOL       0.000000
     30 C21         54.1410     1.9120    -8.4350 ca         1 MOL       0.000000
     31 Cl2         53.2180     0.9990    -9.5940 cl         1 MOL       0.000000
     32 H3          49.2000     0.6370    -5.5600 h4         1 MOL       0.000000
     33 H4          51.5750     1.3230    -6.2080 ha         1 MOL       0.000000
     34 H5          50.1170     5.7100    -9.7630 h1         1 MOL       0.000000
     35 H6          48.7860     5.7960    -8.6350 h1         1 MOL       0.000000
     36 H7          48.7130     4.6960    -9.9900 h1         1 MOL       0.000000
     37 H8          42.8960     2.6970    -7.4280 ha         1 MOL       0.000000
     38 H9          41.6340     2.0620    -9.4420 ha         1 MOL       0.000000
     39 H10         42.7990     1.2700   -11.4270 ha         1 MOL       0.000000
     40 H11         46.5320     1.7060    -9.4340 ha         1 MOL       0.000000
     41 H12         46.5430     0.8590   -11.6150 h1         1 MOL       0.000000
     42 H13         45.0790    -0.0160   -12.1000 h1         1 MOL       0.000000
     43 H14         56.2450     3.8590    -5.8460 ha         1 MOL       0.000000
     44 H15         57.3620     2.4410    -7.5090 ha         1 MOL       0.000000
     45 H16         56.0250     1.1440    -9.1270 ha         1 MOL       0.000000
@<TRIPOS>BOND
     1     1     2 ar  
     2     2     3 ar  
     3     3    32 1   
     4     4     5 1   
     5     4     3 ar  
     6     5    33 1   
     7     6    24 1   
     8     6     5 2   
     9     7     6 1   
    10     8     7 2   
    11     9     7 1   
    12     9    10 1   
    13    10     4 ar  
    14    11    10 ar  
    15    11     1 ar  
    16    12     9 1   
    17    12    34 1   
    18    12    35 1   
    19    12    36 1   
    20    13     1 1   
    21    13    14 1   
    22    15    13 1   
    23    16    15 ar  
    24    16    37 1   
    25    17    16 ar  
    26    17    38 1   
    27    18    17 ar  
    28    18    39 1   
    29    19    18 ar  
    30    19    20 ar  
    31    20    15 ar  
    32    20    40 1   
    33    21    19 1   
    34    21    41 1   
    35    21    42 1   
    36    22    21 1   
    37    23    22 1   
    38    24    25 ar  
    39    25    27 ar  
    40    25    26 1   
    41    27    43 1   
    42    28    27 ar  
    43    28    44 1   
    44    29    30 ar  
    45    29    28 ar  
    46    29    45 1   
    47    30    24 ar  
    48    31    30 1   
@<TRIPOS>SUBSTRUCTURE
     1 MOL         1 TEMP              0 ****  ****    0 ROOT
