@<TRIPOS>MOLECULE
MOL
   45    48     1     0     0
SMALL
No Charge or Current Charge


@<TRIPOS>ATOM
      1 C1          52.3170     6.1110   -11.6610 ca         1 MOL       0.000000
      2 N1          51.6790     7.1090   -10.9430 nb         1 MOL       0.000000
      3 C2          51.4990     6.8960    -9.6280 ca         1 MOL       0.000000
      4 C3          51.9250     5.7090    -8.9670 ca         1 MOL       0.000000
      5 C4          51.7370     5.4640    -7.5660 cc         1 MOL       0.000000
      6 C5          52.1710     4.3030    -6.9960 cd         1 MOL       0.000000
      7 C6          52.8930     3.2630    -7.8190 c          1 MOL       0.000000
      8 O1          53.3260     2.1900    -7.3940 o          1 MOL       0.000000
      9 N2          53.0560     3.5430    -9.2220 n          1 MOL       0.000000
     10 C7          52.6060     4.7350    -9.7920 ca         1 MOL       0.000000
     11 N3          52.7710     4.9490   -11.1220 nb         1 MOL       0.000000
     12 C8          53.7540     2.5670   -10.0950 c3         1 MOL       0.000000
     13 N4          52.4470     6.3600   -12.9990 nh         1 MOL       0.000000
     14 H1          52.8350     7.2790   -13.2530 hn         1 MOL       0.000000
     15 C9          52.1110     5.5030   -14.0790 ca         1 MOL       0.000000
     16 C10         52.0080     4.0760   -13.9860 ca         1 MOL       0.000000
     17 C11         51.6320     3.3170   -15.1380 ca         1 MOL       0.000000
     18 C12         51.3580     3.9620   -16.3610 ca         1 MOL       0.000000
     19 C13         51.4560     5.3950   -16.4660 ca         1 MOL       0.000000
     20 C14         51.8290     6.1520   -15.3300 ca         1 MOL       0.000000
     21 C15         51.1510     6.0900   -17.7840 c3         1 MOL       0.000000
     22 O2          51.7270     7.3620   -17.8770 oh         1 MOL       0.000000
     23 H2          51.0530     8.0150   -18.3000 ho         1 MOL       0.000000
     24 C16         51.9790     4.0060    -5.5610 ca         1 MOL       0.000000
     25 C17         50.8950     3.2100    -5.0960 ca         1 MOL       0.000000
     26 Cl1         49.7780     2.5010    -6.2390 cl         1 MOL       0.000000
     27 C18         50.7190     2.9510    -3.6960 ca         1 MOL       0.000000
     28 C19         51.6180     3.5180    -2.7470 ca         1 MOL       0.000000
     29 C20         52.7170     4.3170    -3.1810 ca         1 MOL       0.000000
     30 C21         52.8720     4.5620    -4.5820 ca         1 MOL       0.000000
     31 Cl2         54.2190     5.5370    -5.0970 cl         1 MOL       0.000000
     32 H3          51.0300     7.6270    -9.0710 h4         1 MOL       0.000000
     33 H4          51.2680     6.1740    -6.9820 ha         1 MOL       0.000000
     34 H5          53.7810     2.9400   -11.0970 h1         1 MOL       0.000000
     35 H6          53.2310     1.6340   -10.0760 h1         1 MOL       0.000000
     36 H7          54.7540     2.4230    -9.7410 h1         1 MOL       0.000000
     37 H8          52.2040     3.5990   -13.0920 ha         1 MOL       0.000000
     38 H9          51.5610     2.2890   -15.0740 ha         1 MOL       0.000000
     39 H10         51.0860     3.4040   -17.1860 ha         1 MOL       0.000000
     40 H11         51.8990     7.1790   -15.4000 ha         1 MOL       0.000000
     41 H12         51.5270     5.4860   -18.5830 h1         1 MOL       0.000000
     42 H13         50.0900     6.2140   -17.8430 h1         1 MOL       0.000000
     43 H14         49.9410     2.3540    -3.3760 ha         1 MOL       0.000000
     44 H15         51.4730     3.3490    -1.7390 ha         1 MOL       0.000000
     45 H16         53.3850     4.7100    -2.5000 ha         1 MOL       0.000000
@<TRIPOS>BOND
     1     1    11 ar  
     2     1     2 ar  
     3     2     3 ar  
     4     3     4 ar  
     5     3    32 1   
     6     4     5 1   
     7     5     6 2   
     8     5    33 1   
     9     6    24 1   
    10     7     8 2   
    11     7     6 1   
    12     9     7 1   
    13    10     9 1   
    14    10     4 ar  
    15    11    10 ar  
    16    12     9 1   
    17    12    34 1   
    18    12    35 1   
    19    12    36 1   
    20    13     1 1   
    21    14    13 1   
    22    15    16 ar  
    23    15    13 1   
    24    16    37 1   
    25    17    16 ar  
    26    17    38 1   
    27    18    17 ar  
    28    18    39 1   
    29    19    18 ar  
    30    19    20 ar  
    31    20    15 ar  
    32    20    40 1   
    33    21    19 1   
    34    21    41 1   
    35    21    42 1   
    36    22    21 1   
    37    23    22 1   
    38    24    25 ar  
    39    24    30 ar  
    40    25    27 ar  
    41    26    25 1   
    42    27    28 ar  
    43    27    43 1   
    44    28    44 1   
    45    29    28 ar  
    46    29    45 1   
    47    30    29 ar  
    48    31    30 1   
@<TRIPOS>SUBSTRUCTURE
     1 MOL         1 TEMP              0 ****  ****    0 ROOT
