@<TRIPOS>MOLECULE
MOL
   35    37     1     0     0
SMALL
No Charge or Current Charge


@<TRIPOS>ATOM
      1 C1          20.2620    23.6870    92.6190 c2         1 MOL       0.000000
      2 C2          20.0970    22.3810    93.1560 c3         1 MOL       0.000000
      3 C3          19.1850    21.4950    92.5100 c2         1 MOL       0.000000
      4 N1          18.4500    21.8740    91.4870 n2         1 MOL       0.000000
      5 C4          18.5410    23.1260    90.9830 c3         1 MOL       0.000000
      6 N2          19.4460    24.0310    91.4510 nh         1 MOL       0.000000
      7 H1          19.5550    24.9440    90.9900 hn         1 MOL       0.000000
      8 C5          21.1240    24.6240    93.1610 c2         1 MOL       0.000000
      9 C6          21.8790    24.2720    94.2800 c3         1 MOL       0.000000
     10 C7          21.7750    22.9760    94.8340 c2         1 MOL       0.000000
     11 C8          20.9160    22.0910    94.3320 c2         1 MOL       0.000000
     12 S1          20.6760    20.5040    95.1420 ss         1 MOL       0.000000
     13 C9          21.3350    20.7900    96.7730 ca         1 MOL       0.000000
     14 C10         22.4550    20.1090    97.1720 ca         1 MOL       0.000000
     15 C11         22.9790    20.2840    98.4790 ca         1 MOL       0.000000
     16 C12         22.2400    21.1120    99.3670 ca         1 MOL       0.000000
     17 C13         21.1120    21.8030    98.9750 ca         1 MOL       0.000000
     18 C14         20.5830    21.6290    97.6480 ca         1 MOL       0.000000
     19 N3          18.8640    20.2270    92.8280 nh         1 MOL       0.000000
     20 H2          19.2080    19.4480    92.2490 hn         1 MOL       0.000000
     21 H3          18.2740    20.0360    93.6510 hn         1 MOL       0.000000
     22 N4          17.8050    23.5680    89.9580 n3         1 MOL       0.000000
     23 H4          16.9690    24.1440    90.1340 hn         1 MOL       0.000000
     24 H5          18.0730    23.3320    88.9920 hn         1 MOL       0.000000
     25 H6          19.7360    21.4080    93.4150 hc         1 MOL       0.000000
     26 H7          18.0320    22.3670    91.5390 h3         1 MOL       0.000000
     27 H8          21.2070    25.5650    92.7460 ha         1 MOL       0.000000
     28 H9          21.6160    24.9600    95.0560 hc         1 MOL       0.000000
     29 H10         22.8830    24.2980    93.9120 hc         1 MOL       0.000000
     30 H11         22.3700    22.7130    95.6350 ha         1 MOL       0.000000
     31 H12         22.9220    19.4630    96.5160 ha         1 MOL       0.000000
     32 H13         23.8580    19.8300    98.7720 ha         1 MOL       0.000000
     33 H14         22.5600    21.2000   100.3440 ha         1 MOL       0.000000
     34 H15         20.6470    22.4460    99.6350 ha         1 MOL       0.000000
     35 H16         19.7080    22.0860    97.3460 ha         1 MOL       0.000000
@<TRIPOS>BOND
     1     1     2 1   
     2     1     8 2   
     3     2    11 1   
     4     2    25 1   
     5     3    19 1   
     6     3     2 1   
     7     4     3 2   
     8     5     6 1   
     9     5     4 1   
    10     5    26 1   
    11     6     1 1   
    12     7     6 1   
    13     8     9 1   
    14     8    27 1   
    15     9    10 1   
    16     9    28 1   
    17     9    29 1   
    18    10    30 1   
    19    11    10 2   
    20    11    12 1   
    21    12    13 1   
    22    13    14 ar  
    23    13    18 ar  
    24    14    15 ar  
    25    14    31 1   
    26    15    16 ar  
    27    15    32 1   
    28    16    33 1   
    29    17    16 ar  
    30    17    34 1   
    31    18    17 ar  
    32    18    35 1   
    33    19    21 1   
    34    20    19 1   
    35    22    23 1   
    36    22     5 1   
    37    24    22 1   
@<TRIPOS>SUBSTRUCTURE
     1 MOL         1 TEMP              0 ****  ****    0 ROOT
