@<TRIPOS>MOLECULE
MOL
   35    37     1     0     0
SMALL
No Charge or Current Charge


@<TRIPOS>ATOM
      1 C1          18.3510    20.1450    92.0460 c2         1 MOL       0.000000
      2 C2          19.0870    21.2350    92.5840 c3         1 MOL       0.000000
      3 C3          18.7110    22.5580    92.2040 c2         1 MOL       0.000000
      4 N1          17.7590    22.7870    91.3250 n2         1 MOL       0.000000
      5 C4          17.0730    21.7710    90.7520 c3         1 MOL       0.000000
      6 N2          17.2740    20.4720    91.1070 nh         1 MOL       0.000000
      7 H1          16.6760    19.7280    90.7210 hn         1 MOL       0.000000
      8 C5          18.6250    18.8230    92.3520 c2         1 MOL       0.000000
      9 C6          19.6640    18.5420    93.2400 c3         1 MOL       0.000000
     10 C7          20.4060    19.5920    93.8270 c2         1 MOL       0.000000
     11 C8          20.1640    20.8600    93.4990 c2         1 MOL       0.000000
     12 S1          21.2180    22.1740    94.1270 ss         1 MOL       0.000000
     13 C9          21.4780    21.6940    95.8240 ca         1 MOL       0.000000
     14 C10         20.6060    22.1340    96.7850 ca         1 MOL       0.000000
     15 C11         20.8080    21.8040    98.1500 ca         1 MOL       0.000000
     16 C12         21.9940    21.0890    98.4730 ca         1 MOL       0.000000
     17 C13         22.8770    20.6400    97.5130 ca         1 MOL       0.000000
     18 C14         22.6690    20.9710    96.1290 ca         1 MOL       0.000000
     19 N3          19.2490    23.7340    92.5760 nh         1 MOL       0.000000
     20 H2          19.7140    23.8210    93.4910 hn         1 MOL       0.000000
     21 H3          19.1980    24.5470    91.9460 hn         1 MOL       0.000000
     22 N4          16.1110    21.9480    89.8410 n3         1 MOL       0.000000
     23 H4          15.4040    21.2150    89.6890 hn         1 MOL       0.000000
     24 H5          16.0770    22.8180    89.2900 hn         1 MOL       0.000000
     25 H6          19.5310    22.1900    92.7730 hc         1 MOL       0.000000
     26 H7          17.7970    22.5580    90.7230 h3         1 MOL       0.000000
     27 H8          18.0720    18.0600    91.9310 ha         1 MOL       0.000000
     28 H9          20.3640    17.9300    92.7100 hc         1 MOL       0.000000
     29 H10         19.1570    18.1070    94.0760 hc         1 MOL       0.000000
     30 H11         21.1420    19.3740    94.5160 ha         1 MOL       0.000000
     31 H12         19.7950    22.7110    96.5130 ha         1 MOL       0.000000
     32 H13         20.1250    22.0710    98.8760 ha         1 MOL       0.000000
     33 H14         22.2030    20.8980    99.4660 ha         1 MOL       0.000000
     34 H15         23.6890    20.0650    97.7890 ha         1 MOL       0.000000
     35 H16         23.3440    20.7000    95.3970 ha         1 MOL       0.000000
@<TRIPOS>BOND
     1     1     8 2   
     2     1     2 1   
     3     2    11 1   
     4     2    25 1   
     5     3    19 1   
     6     3     2 1   
     7     4     3 2   
     8     5     6 1   
     9     5     4 1   
    10     5    26 1   
    11     6     1 1   
    12     7     6 1   
    13     8     9 1   
    14     8    27 1   
    15     9    10 1   
    16     9    28 1   
    17     9    29 1   
    18    10    30 1   
    19    11    10 2   
    20    11    12 1   
    21    12    13 1   
    22    13    18 ar  
    23    13    14 ar  
    24    14    15 ar  
    25    14    31 1   
    26    15    16 ar  
    27    15    32 1   
    28    16    33 1   
    29    17    16 ar  
    30    17    34 1   
    31    18    17 ar  
    32    18    35 1   
    33    19    20 1   
    34    21    19 1   
    35    22     5 1   
    36    23    22 1   
    37    24    22 1   
@<TRIPOS>SUBSTRUCTURE
     1 MOL         1 TEMP              0 ****  ****    0 ROOT
