@<TRIPOS>MOLECULE
MOL
   33    35     1     0     0
SMALL
No Charge or Current Charge


@<TRIPOS>ATOM
      1 C1          23.3580    20.2460    99.4410 ca         1 MOL       0.000000
      2 C2          22.5500    21.1430    98.6930 ca         1 MOL       0.000000
      3 C3          21.8280    22.1520    99.3990 ce         1 MOL       0.000000
      4 N1          21.8370    22.2260   100.7130 n2         1 MOL       0.000000
      5 C4          22.5530    21.3550   101.4600 c3         1 MOL       0.000000
      6 N2          23.3580    20.4110   100.8980 nh         1 MOL       0.000000
      7 H1          23.9610    19.8220   101.4890 hn         1 MOL       0.000000
      8 C5          24.1050    19.2360    98.8590 ca         1 MOL       0.000000
      9 C6          24.0760    19.0960    97.4720 ca         1 MOL       0.000000
     10 C7          23.3110    19.9820    96.6790 ca         1 MOL       0.000000
     11 C8          22.5650    20.9270    97.2480 ca         1 MOL       0.000000
     12 S1          21.4740    21.9430    96.2430 ss         1 MOL       0.000000
     13 C9          21.0660    20.8620    94.8850 ca         1 MOL       0.000000
     14 C10         21.4880    21.1830    93.6220 ca         1 MOL       0.000000
     15 C11         21.1450    20.3650    92.5160 ca         1 MOL       0.000000
     16 C12         20.2750    19.2680    92.7670 ca         1 MOL       0.000000
     17 C13         19.8460    18.9350    94.0350 ca         1 MOL       0.000000
     18 C14         20.1980    19.7630    95.1580 ca         1 MOL       0.000000
     19 N3          21.0070    23.1040    98.9170 nh         1 MOL       0.000000
     20 H2          20.2120    22.8430    98.3170 hn         1 MOL       0.000000
     21 H3          21.1740    24.0940    99.1490 hn         1 MOL       0.000000
     22 N4          22.5810    21.3740   102.7970 n3         1 MOL       0.000000
     23 H4          23.1430    20.6800   103.3100 hn         1 MOL       0.000000
     24 H5          22.0410    22.0830   103.3130 hn         1 MOL       0.000000
     25 H6          21.6340    21.7440   101.0730 h3         1 MOL       0.000000
     26 H7          24.6720    18.5990    99.4400 ha         1 MOL       0.000000
     27 H8          24.6160    18.3410    97.0210 ha         1 MOL       0.000000
     28 H9          23.3310    19.8960    95.6510 ha         1 MOL       0.000000
     29 H10         22.0610    22.0280    93.4740 ha         1 MOL       0.000000
     30 H11         21.5110    20.5570    91.5700 ha         1 MOL       0.000000
     31 H12         19.9520    18.6990    91.9690 ha         1 MOL       0.000000
     32 H13         19.2710    18.0900    94.1790 ha         1 MOL       0.000000
     33 H14         19.8420    19.5730    96.1080 ha         1 MOL       0.000000
@<TRIPOS>BOND
     1     1     6 1   
     2     2     3 1   
     3     2     1 ar  
     4     3     4 2   
     5     4     5 1   
     6     5    22 1   
     7     5    25 1   
     8     6     5 1   
     9     6     7 1   
    10     8     1 ar  
    11     8    26 1   
    12     9     8 ar  
    13     9    27 1   
    14    10    11 ar  
    15    10     9 ar  
    16    10    28 1   
    17    11     2 ar  
    18    12    11 1   
    19    13    18 ar  
    20    13    12 1   
    21    14    13 ar  
    22    14    29 1   
    23    15    16 ar  
    24    15    14 ar  
    25    15    30 1   
    26    16    17 ar  
    27    16    31 1   
    28    17    18 ar  
    29    17    32 1   
    30    18    33 1   
    31    19    21 1   
    32    19     3 1   
    33    20    19 1   
    34    22    23 1   
    35    22    24 1   
@<TRIPOS>SUBSTRUCTURE
     1 MOL         1 TEMP              0 ****  ****    0 ROOT
