@<TRIPOS>MOLECULE
MOL
   22    21     1     0     0
SMALL
No Charge or Current Charge


@<TRIPOS>ATOM
      1 C1          44.1610    37.5750    20.8350 c3         1 MOL       0.000000
      2 C2          45.4470    37.3460    21.6960 c          1 MOL       0.000000
      3 O1          46.3390    38.2980    21.7040 o          1 MOL       0.000000
      4 O2          45.5760    36.3080    22.3560 oh         1 MOL       0.000000
      5 O3          42.9930    37.2090    21.6450 oh         1 MOL       0.000000
      6 H1          43.2220    37.3100    22.6440 ho         1 MOL       0.000000
      7 C3          44.1910    36.7160    19.4950 c3         1 MOL       0.000000
      8 C4          45.6070    36.6250    18.9310 c3         1 MOL       0.000000
      9 C5          43.6320    35.3270    19.7340 c3         1 MOL       0.000000
     10 C6          43.2990    37.4870    18.4900 c3         1 MOL       0.000000
     11 O4          42.8510    38.7140    19.0400 oh         1 MOL       0.000000
     12 H2          43.6620    39.2770    19.3310 ho         1 MOL       0.000000
     13 H3          44.1110    38.6050    20.5480 h1         1 MOL       0.000000
     14 H4          44.9130    35.6470    22.3240 ho         1 MOL       0.000000
     15 H5          45.5960    36.0430    18.0330 hc         1 MOL       0.000000
     16 H6          46.2480    36.1590    19.6500 hc         1 MOL       0.000000
     17 H7          45.9690    37.6080    18.7150 hc         1 MOL       0.000000
     18 H8          43.6620    34.7690    18.8220 hc         1 MOL       0.000000
     19 H9          42.6200    35.4030    20.0730 hc         1 MOL       0.000000
     20 H10         44.2200    34.8290    20.4770 hc         1 MOL       0.000000
     21 H11         43.8640    37.6870    17.6040 h1         1 MOL       0.000000
     22 H12         42.4440    36.8850    18.2640 h1         1 MOL       0.000000
@<TRIPOS>BOND
     1     1     5 1   
     2     1     2 1   
     3     1    13 1   
     4     2     3 2   
     5     2     4 1   
     6     4    14 1   
     7     5     6 1   
     8     7     9 1   
     9     7     1 1   
    10     8     7 1   
    11     8    15 1   
    12     8    16 1   
    13     8    17 1   
    14     9    18 1   
    15     9    19 1   
    16     9    20 1   
    17    10    11 1   
    18    10     7 1   
    19    10    21 1   
    20    10    22 1   
    21    11    12 1   
@<TRIPOS>SUBSTRUCTURE
     1 MOL         1 TEMP              0 ****  ****    0 ROOT
