@<TRIPOS>MOLECULE
MOL
   22    21     1     0     0
SMALL
No Charge or Current Charge


@<TRIPOS>ATOM
      1 C1          44.3040    35.7650    10.6430 c3         1 MOL       0.000000
      2 C2          45.8050    35.8340    11.0810 c          1 MOL       0.000000
      3 O1          46.2670    34.8420    11.7910 oh         1 MOL       0.000000
      4 O2          46.5110    36.7870    10.7300 o          1 MOL       0.000000
      5 O3          44.2070    36.2310     9.2540 oh         1 MOL       0.000000
      6 H1          44.1670    35.4200     8.6220 ho         1 MOL       0.000000
      7 C3          43.3770    36.6520    11.5860 c3         1 MOL       0.000000
      8 C4          44.1110    37.0470    12.8660 c3         1 MOL       0.000000
      9 C5          42.8940    37.8900    10.8550 c3         1 MOL       0.000000
     10 C6          42.1770    35.7450    11.9550 c3         1 MOL       0.000000
     11 O4          41.0020    36.5100    12.1650 oh         1 MOL       0.000000
     12 H2          40.1770    35.9510    11.9070 ho         1 MOL       0.000000
     13 H3          43.9620    34.7540    10.7240 h1         1 MOL       0.000000
     14 H4          45.7000    34.1380    12.0370 ho         1 MOL       0.000000
     15 H5          44.9430    37.6740    12.6210 hc         1 MOL       0.000000
     16 H6          44.4620    36.1660    13.3620 hc         1 MOL       0.000000
     17 H7          43.4420    37.5770    13.5120 hc         1 MOL       0.000000
     18 H8          42.3820    37.6000     9.9610 hc         1 MOL       0.000000
     19 H9          43.7330    38.5050    10.6020 hc         1 MOL       0.000000
     20 H10         42.2270    38.4390    11.4860 hc         1 MOL       0.000000
     21 H11         42.4080    35.2070    12.8510 h1         1 MOL       0.000000
     22 H12         42.0010    35.0690    11.1440 h1         1 MOL       0.000000
@<TRIPOS>BOND
     1     1     2 1   
     2     1     7 1   
     3     1    13 1   
     4     2     3 1   
     5     3    14 1   
     6     4     2 2   
     7     5     1 1   
     8     6     5 1   
     9     7    10 1   
    10     7     8 1   
    11     8    15 1   
    12     8    16 1   
    13     8    17 1   
    14     9     7 1   
    15     9    18 1   
    16     9    19 1   
    17     9    20 1   
    18    10    11 1   
    19    10    21 1   
    20    10    22 1   
    21    12    11 1   
@<TRIPOS>SUBSTRUCTURE
     1 MOL         1 TEMP              0 ****  ****    0 ROOT
