@<TRIPOS>MOLECULE
MOL
   24    25     1     0     0
SMALL
No Charge or Current Charge


@<TRIPOS>ATOM
      1 C1           0.9820    30.5220    17.0520 ca         1 MOL       0.000000
      2 C2           1.0700    29.3800    17.8550 ca         1 MOL       0.000000
      3 C3           2.2020    28.5030    17.7820 ca         1 MOL       0.000000
      4 C4           3.2310    28.8430    16.8730 ca         1 MOL       0.000000
      5 C5           3.1910    29.9430    16.0820 ca         1 MOL       0.000000
      6 C6           2.0880    30.8100    16.1480 ca         1 MOL       0.000000
      7 C7           1.9840    32.0040    15.3530 ca         1 MOL       0.000000
      8 C8           0.8670    32.8130    15.4310 ca         1 MOL       0.000000
      9 C9          -0.1960    32.5440    16.3130 ca         1 MOL       0.000000
     10 C10         -0.1670    31.4190    17.1050 ca         1 MOL       0.000000
     11 C11         -0.0880    28.9970    18.8160 c3         1 MOL       0.000000
     12 C12          0.4630    28.5970    20.1430 c          1 MOL       0.000000
     13 O1           1.0260    29.4300    20.9800 oh         1 MOL       0.000000
     14 O2           0.2010    27.3240    20.3990 o          1 MOL       0.000000
     15 H1           2.2640    27.6570    18.3700 ha         1 MOL       0.000000
     16 H2           4.0530    28.2230    16.8090 ha         1 MOL       0.000000
     17 H3           3.9680    30.1430    15.4330 ha         1 MOL       0.000000
     18 H4           2.7540    32.2600    14.7160 ha         1 MOL       0.000000
     19 H5           0.8100    33.6440    14.8210 ha         1 MOL       0.000000
     20 H6          -0.9980    33.1910    16.3660 ha         1 MOL       0.000000
     21 H7          -0.9570    31.2100    17.7350 ha         1 MOL       0.000000
     22 H8          -0.6380    28.1790    18.4000 hc         1 MOL       0.000000
     23 H9          -0.7330    29.8410    18.9430 hc         1 MOL       0.000000
     24 H10          1.1790    30.3190    20.7250 ho         1 MOL       0.000000
@<TRIPOS>BOND
     1     1    10 ar  
     2     1     2 ar  
     3     2    11 1   
     4     3     2 ar  
     5     3    15 1   
     6     4     3 ar  
     7     4    16 1   
     8     5     6 ar  
     9     5     4 ar  
    10     5    17 1   
    11     6     1 ar  
    12     7     8 ar  
    13     7     6 ar  
    14     7    18 1   
    15     8     9 ar  
    16     8    19 1   
    17     9    10 ar  
    18     9    20 1   
    19    10    21 1   
    20    11    12 1   
    21    11    22 1   
    22    11    23 1   
    23    12    14 2   
    24    12    13 1   
    25    13    24 1   
@<TRIPOS>SUBSTRUCTURE
     1 MOL         1 TEMP              0 ****  ****    0 ROOT
