@<TRIPOS>MOLECULE
MOL
   24    25     1     0     0
SMALL
No Charge or Current Charge


@<TRIPOS>ATOM
      1 C1          -0.1800    33.2180    15.9530 ca         1 MOL       0.000000
      2 C2          -1.1860    34.1900    15.9360 ca         1 MOL       0.000000
      3 C3          -1.3880    35.0340    14.7960 ca         1 MOL       0.000000
      4 C4          -0.5370    34.8400    13.6830 ca         1 MOL       0.000000
      5 C5           0.4440    33.9060    13.6520 ca         1 MOL       0.000000
      6 C6           0.6490    33.0710    14.7630 ca         1 MOL       0.000000
      7 C7           1.6590    32.0470    14.7960 ca         1 MOL       0.000000
      8 C8           1.8420    31.2680    15.9220 ca         1 MOL       0.000000
      9 C9           1.0330    31.3990    17.0660 ca         1 MOL       0.000000
     10 C10          0.0470    32.3580    17.1080 ca         1 MOL       0.000000
     11 C11         -2.0840    34.4200    17.1820 c3         1 MOL       0.000000
     12 C12         -1.5840    35.5900    17.9610 c          1 MOL       0.000000
     13 O1          -0.4730    35.5860    18.6490 oh         1 MOL       0.000000
     14 O2          -2.3520    36.6510    17.7630 o          1 MOL       0.000000
     15 H1          -2.1260    35.7550    14.7870 ha         1 MOL       0.000000
     16 H2          -0.6700    35.4400    12.8540 ha         1 MOL       0.000000
     17 H3           1.0390    33.8080    12.8150 ha         1 MOL       0.000000
     18 H4           2.2550    31.8920    13.9670 ha         1 MOL       0.000000
     19 H5           2.5980    30.5660    15.9240 ha         1 MOL       0.000000
     20 H6           1.1790    30.7750    17.8750 ha         1 MOL       0.000000
     21 H7          -0.5310    32.4680    17.9560 ha         1 MOL       0.000000
     22 H8          -2.0630    33.5470    17.8000 hc         1 MOL       0.000000
     23 H9          -3.0870    34.6130    16.8620 hc         1 MOL       0.000000
     24 H10          0.0160    34.7920    18.7440 ho         1 MOL       0.000000
@<TRIPOS>BOND
     1     1    10 ar  
     2     2     1 ar  
     3     2    11 1   
     4     3     2 ar  
     5     3    15 1   
     6     4     3 ar  
     7     4    16 1   
     8     5     4 ar  
     9     5     6 ar  
    10     5    17 1   
    11     6     7 ar  
    12     6     1 ar  
    13     7     8 ar  
    14     7    18 1   
    15     8     9 ar  
    16     8    19 1   
    17     9    10 ar  
    18     9    20 1   
    19    10    21 1   
    20    11    12 1   
    21    11    22 1   
    22    11    23 1   
    23    12    13 1   
    24    13    24 1   
    25    14    12 2   
@<TRIPOS>SUBSTRUCTURE
     1 MOL         1 TEMP              0 ****  ****    0 ROOT
