@<TRIPOS>MOLECULE
MOL
   25    22     1     0     0
SMALL
No Charge or Current Charge


@<TRIPOS>ATOM
      1 O1          10.2620    40.1940    29.7380 o          1 MOL       0.000000
      2 C1          10.9830    39.3070    29.2820 c          1 MOL       0.000000
      3 C2          11.6500    38.3010    30.2190 c1         1 MOL       0.000000
      4 H1          11.0400    37.3840    30.3060 ha         1 MOL       0.000000
      5 C3          11.9650    38.9300    31.5780 c3         1 MOL       0.000000
      6 C4          13.0020    37.9330    32.0990 c3         1 MOL       0.000000
      7 H2          12.4980    36.9700    32.3080 hc         1 MOL       0.000000
      8 H3          13.5250    38.2210    33.0240 hc         1 MOL       0.000000
      9 C5          13.9390    37.8020    30.8950 c3         1 MOL       0.000000
     10 H4          14.4860    36.8520    30.8080 h1         1 MOL       0.000000
     11 H5          14.6720    38.6250    30.8620 h1         1 MOL       0.000000
     12 N1          13.0000    37.9450    29.7580 n          1 MOL       0.000000
     13 C6          13.2550    37.8880    28.3810 c          1 MOL       0.000000
     14 O2          14.3840    37.6110    27.9780 o          1 MOL       0.000000
     15 C7          12.1460    38.1890    27.3680 c1         1 MOL       0.000000
     16 H6          11.5990    37.2560    27.1500 ha         1 MOL       0.000000
     17 H7          12.6450    38.5480    26.4580 ha         1 MOL       0.000000
     18 N2          11.2230    39.2170    27.9040 n          1 MOL       0.000000
     19 H8          10.7540    39.8700    27.2600 hn         1 MOL       0.000000
     20 H9          11.4160    38.6220    29.9210 h5         1 MOL       0.000000
     21 H10         11.5230    38.5490    30.6810 hc         1 MOL       0.000000
     22 H11         12.4420    39.8650    31.3710 hc         1 MOL       0.000000
     23 H12         11.2050    39.0730    32.3170 hc         1 MOL       0.000000
     24 H13         12.4970    38.0780    27.7060 h5         1 MOL       0.000000
     25 H14         11.8370    38.5320    27.5530 hn         1 MOL       0.000000
@<TRIPOS>BOND
     1     2     1 2   
     2     2    20 1   
     3     3     4 1   
     4     5     6 1   
     5     5    21 1   
     6     5    22 1   
     7     5    23 1   
     8     6     7 1   
     9     6     8 1   
    10     9     6 1   
    11    10     9 1   
    12    11     9 1   
    13    12     3 1   
    14    12     9 1   
    15    13    12 1   
    16    13    24 1   
    17    14    13 2   
    18    16    15 1   
    19    17    15 1   
    20    18     2 1   
    21    18    25 1   
    22    19    18 1   
@<TRIPOS>SUBSTRUCTURE
     1 MOL         1 TEMP              0 ****  ****    0 ROOT
