@<TRIPOS>MOLECULE
MOL
   25    22     1     0     0
SMALL
No Charge or Current Charge


@<TRIPOS>ATOM
      1 O1          14.9580    36.9370    28.4590 o          1 MOL       0.000000
      2 C1          14.0350    37.7480    28.4040 c          1 MOL       0.000000
      3 C2          13.5110    38.4040    29.6820 c1         1 MOL       0.000000
      4 H1          13.9980    39.3820    29.8470 ha         1 MOL       0.000000
      5 C3          13.6460    37.4670    30.8830 c3         1 MOL       0.000000
      6 C4          12.6610    38.1290    31.8490 c3         1 MOL       0.000000
      7 H2          13.0720    39.1070    32.1650 hc         1 MOL       0.000000
      8 H3          12.4390    37.5690    32.7710 hc         1 MOL       0.000000
      9 C5          11.4330    38.3240    30.9550 c3         1 MOL       0.000000
     10 H4          10.7640    39.1530    31.2250 h1         1 MOL       0.000000
     11 H5          10.8300    37.4020    30.8910 h1         1 MOL       0.000000
     12 N1          12.0530    38.5890    29.6350 n          1 MOL       0.000000
     13 C6          11.4420    38.8730    28.4070 c          1 MOL       0.000000
     14 O2          10.2200    39.0110    28.3480 o          1 MOL       0.000000
     15 C7          12.2770    38.9930    27.1290 c1         1 MOL       0.000000
     16 H6          12.6220    40.0360    27.0250 ha         1 MOL       0.000000
     17 H7          11.6090    38.7390    26.2950 ha         1 MOL       0.000000
     18 N2          13.4340    38.0670    27.1790 n          1 MOL       0.000000
     19 H8          13.7980    37.6560    26.3080 hn         1 MOL       0.000000
     20 H9          13.6990    38.1990    29.2700 h5         1 MOL       0.000000
     21 H10         13.7850    38.0960    30.0290 hc         1 MOL       0.000000
     22 H11         13.2570    36.5210    30.5700 hc         1 MOL       0.000000
     23 H12         14.5850    37.3210    31.3750 hc         1 MOL       0.000000
     24 H13         12.0150    38.9660    27.5540 h5         1 MOL       0.000000
     25 H14         12.6660    38.6820    27.1510 hn         1 MOL       0.000000
@<TRIPOS>BOND
     1     2     1 2   
     2     2    20 1   
     3     3     4 1   
     4     5     6 1   
     5     5    21 1   
     6     5    22 1   
     7     5    23 1   
     8     6     7 1   
     9     6     8 1   
    10     9    10 1   
    11     9     6 1   
    12    11     9 1   
    13    12     3 1   
    14    12     9 1   
    15    13    12 1   
    16    13    24 1   
    17    14    13 2   
    18    16    15 1   
    19    17    15 1   
    20    18     2 1   
    21    18    25 1   
    22    19    18 1   
@<TRIPOS>SUBSTRUCTURE
     1 MOL         1 TEMP              0 ****  ****    0 ROOT
