@<TRIPOS>MOLECULE
MOL
   40    42     1     0     0
SMALL
No Charge or Current Charge


@<TRIPOS>ATOM
      1 N1          14.7130    17.1250    27.7910 na         1 MOL       0.000000
      2 C1          15.3320    15.9790    27.3790 cc         1 MOL       0.000000
      3 C2          16.5580    15.9290    28.0390 cd         1 MOL       0.000000
      4 C3          16.6200    17.1240    28.7490 cd         1 MOL       0.000000
      5 N2          15.5190    17.8360    28.6030 nc         1 MOL       0.000000
      6 C4          13.4470    17.7700    27.4670 ca         1 MOL       0.000000
      7 C5          12.9210    18.6380    28.3850 ca         1 MOL       0.000000
      8 C6          11.6690    19.1870    28.1420 ca         1 MOL       0.000000
      9 C7          10.9920    18.8610    26.9910 ca         1 MOL       0.000000
     10 C8          11.5170    17.9950    26.0530 ca         1 MOL       0.000000
     11 C9          12.7760    17.4400    26.3060 ca         1 MOL       0.000000
     12 S1           9.3340    19.4680    26.7140 sy         1 MOL       0.000000
     13 O1           9.2450    20.7530    27.2780 o          1 MOL       0.000000
     14 O2           8.4720    18.4640    27.2880 o          1 MOL       0.000000
     15 N3           9.0990    19.5600    25.1450 n3         1 MOL       0.000000
     16 H1           9.9020    19.5250    24.5010 hn         1 MOL       0.000000
     17 C10         14.8420    14.8830    26.5510 ca         1 MOL       0.000000
     18 C11         14.0760    13.9040    27.1630 ca         1 MOL       0.000000
     19 C12         13.6160    12.8290    26.4390 ca         1 MOL       0.000000
     20 C13         13.8680    12.7440    25.0890 ca         1 MOL       0.000000
     21 C14         13.3600    11.5560    24.3130 c3         1 MOL       0.000000
     22 C15         14.5660    13.7650    24.4540 ca         1 MOL       0.000000
     23 C16         15.0720    14.8010    25.1930 ca         1 MOL       0.000000
     24 C17         17.7490    17.6270    29.5800 c3         1 MOL       0.000000
     25 F1          17.7410    18.9190    29.7860 f          1 MOL       0.000000
     26 F2          18.9510    17.2600    29.1480 f          1 MOL       0.000000
     27 F3          17.6870    17.0710    30.7840 f          1 MOL       0.000000
     28 H2          17.2620    15.1750    28.0080 ha         1 MOL       0.000000
     29 H3          13.4440    18.8800    29.2410 ha         1 MOL       0.000000
     30 H4          11.2480    19.8380    28.8230 ha         1 MOL       0.000000
     31 H5          10.9970    17.7640    25.1920 ha         1 MOL       0.000000
     32 H6          13.2010    16.7880    25.6290 ha         1 MOL       0.000000
     33 H7           8.4860    18.7850    24.8930 hn         1 MOL       0.000000
     34 H8          13.8500    13.9820    28.1670 ha         1 MOL       0.000000
     35 H9          13.0800    12.0830    26.9100 ha         1 MOL       0.000000
     36 H10         13.6440    11.6530    23.2860 hc         1 MOL       0.000000
     37 H11         12.2930    11.5120    24.3850 hc         1 MOL       0.000000
     38 H12         13.7820    10.6590    24.7170 hc         1 MOL       0.000000
     39 H13         14.7020    13.7420    23.4310 ha         1 MOL       0.000000
     40 H14         15.6330    15.5310    24.7270 ha         1 MOL       0.000000
@<TRIPOS>BOND
     1     1     5 1   
     2     2     1 1   
     3     2     3 2   
     4     3     4 1   
     5     3    28 1   
     6     4    24 1   
     7     5     4 2   
     8     6     1 1   
     9     6     7 ar  
    10     7    29 1   
    11     8     7 ar  
    12     8    30 1   
    13     9     8 ar  
    14    10    11 ar  
    15    10     9 ar  
    16    10    31 1   
    17    11     6 ar  
    18    11    32 1   
    19    12     9 1   
    20    12    13 2   
    21    12    14 2   
    22    15    12 1   
    23    15    33 1   
    24    16    15 1   
    25    17    18 ar  
    26    17     2 1   
    27    18    34 1   
    28    19    18 ar  
    29    19    35 1   
    30    20    19 ar  
    31    21    20 1   
    32    21    36 1   
    33    21    37 1   
    34    21    38 1   
    35    22    20 ar  
    36    22    23 ar  
    37    22    39 1   
    38    23    17 ar  
    39    23    40 1   
    40    24    25 1   
    41    24    27 1   
    42    26    24 1   
@<TRIPOS>SUBSTRUCTURE
     1 MOL         1 TEMP              0 ****  ****    0 ROOT
