@<TRIPOS>MOLECULE
MOL
   40    42     1     0     0
SMALL
No Charge or Current Charge


@<TRIPOS>ATOM
      1 N1           8.5740    18.8040    26.2620 na         1 MOL       0.000000
      2 C1           9.8190    18.6130    26.7910 cc         1 MOL       0.000000
      3 C2           9.7810    19.1120    28.0910 cd         1 MOL       0.000000
      4 C3           8.5070    19.6570    28.2170 cd         1 MOL       0.000000
      5 N2           7.7870    19.4720    27.1270 nc         1 MOL       0.000000
      6 C4           7.9690    18.5380    24.9640 ca         1 MOL       0.000000
      7 C5           8.2130    19.4280    23.9530 ca         1 MOL       0.000000
      8 C6           7.5690    19.2500    22.7370 ca         1 MOL       0.000000
      9 C7           6.7140    18.1870    22.5670 ca         1 MOL       0.000000
     10 C8           6.4670    17.2760    23.5740 ca         1 MOL       0.000000
     11 C9           7.1160    17.4650    24.8000 ca         1 MOL       0.000000
     12 S1           5.7890    18.0040    21.0490 sy         1 MOL       0.000000
     13 O1           5.5390    16.6330    20.8580 o          1 MOL       0.000000
     14 O2           6.5980    18.6460    20.0420 o          1 MOL       0.000000
     15 N3           4.4090    18.7750    21.2170 n3         1 MOL       0.000000
     16 H1           3.8470    19.0120    20.3870 hn         1 MOL       0.000000
     17 C10         10.9760    17.9030    26.2570 ca         1 MOL       0.000000
     18 C11         12.2200    18.2020    26.7900 ca         1 MOL       0.000000
     19 C12         13.3490    17.5900    26.3010 ca         1 MOL       0.000000
     20 C13         13.2490    16.6350    25.3140 ca         1 MOL       0.000000
     21 C14         14.4990    15.9790    24.7870 c3         1 MOL       0.000000
     22 C15         11.9960    16.2730    24.8340 ca         1 MOL       0.000000
     23 C16         10.8820    16.9310    25.2830 ca         1 MOL       0.000000
     24 C17          7.9460    20.3900    29.3860 c3         1 MOL       0.000000
     25 F1           8.1600    19.8190    30.5430 f          1 MOL       0.000000
     26 F2           6.6550    20.6850    29.2770 f          1 MOL       0.000000
     27 F3           8.5150    21.5860    29.4650 f          1 MOL       0.000000
     28 H2          10.5290    19.0840    28.8010 ha         1 MOL       0.000000
     29 H3           8.8640    20.2170    24.0930 ha         1 MOL       0.000000
     30 H4           7.7310    19.9130    21.9630 ha         1 MOL       0.000000
     31 H5           5.8250    16.4810    23.4280 ha         1 MOL       0.000000
     32 H6           6.9570    16.8050    25.5780 ha         1 MOL       0.000000
     33 H7           3.8200    18.1970    21.8160 hn         1 MOL       0.000000
     34 H8          12.2990    18.8870    27.5580 ha         1 MOL       0.000000
     35 H9          14.2760    17.8470    26.6750 ha         1 MOL       0.000000
     36 H10         14.2370    15.2680    24.0310 hc         1 MOL       0.000000
     37 H11         15.0040    15.4790    25.5870 hc         1 MOL       0.000000
     38 H12         15.1430    16.7240    24.3690 hc         1 MOL       0.000000
     39 H13         11.9050    15.5120    24.1430 ha         1 MOL       0.000000
     40 H14          9.9590    16.6960    24.8870 ha         1 MOL       0.000000
@<TRIPOS>BOND
     1     1     2 1   
     2     1     5 1   
     3     2     3 2   
     4     3     4 1   
     5     3    28 1   
     6     4    24 1   
     7     5     4 2   
     8     6     1 1   
     9     7     6 ar  
    10     7    29 1   
    11     8     7 ar  
    12     8    30 1   
    13     9     8 ar  
    14     9    10 ar  
    15    10    11 ar  
    16    10    31 1   
    17    11     6 ar  
    18    11    32 1   
    19    12    15 1   
    20    12     9 1   
    21    13    12 2   
    22    14    12 2   
    23    15    33 1   
    24    16    15 1   
    25    17    18 ar  
    26    17     2 1   
    27    18    34 1   
    28    19    18 ar  
    29    19    35 1   
    30    20    19 ar  
    31    21    20 1   
    32    21    36 1   
    33    21    37 1   
    34    21    38 1   
    35    22    23 ar  
    36    22    20 ar  
    37    22    39 1   
    38    23    17 ar  
    39    23    40 1   
    40    24    27 1   
    41    24    25 1   
    42    26    24 1   
@<TRIPOS>SUBSTRUCTURE
     1 MOL         1 TEMP              0 ****  ****    0 ROOT
