@<TRIPOS>MOLECULE
MOL
   25    25     1     0     0
SMALL
No Charge or Current Charge


@<TRIPOS>ATOM
      1 C1          24.6880    36.8940    39.7170 c3         1 MOL       0.000000
      2 N1          23.7180    37.7320    40.1360 nh         1 MOL       0.000000
      3 C2          22.7370    38.2580    39.3080 cc         1 MOL       0.000000
      4 N2          21.8630    39.0350    39.7730 nc         1 MOL       0.000000
      5 C3          20.8510    39.6020    39.0120 cd         1 MOL       0.000000
      6 N3          20.0120    40.3560    39.4890 nh         1 MOL       0.000000
      7 H1          19.2770    40.7550    38.8880 hn         1 MOL       0.000000
      8 H2          20.0420    40.5910    40.4910 hn         1 MOL       0.000000
      9 C4          22.7240    37.9210    37.9590 cd         1 MOL       0.000000
     10 C5          21.7340    38.4440    37.0960 c          1 MOL       0.000000
     11 N4          20.8920    39.2330    37.6970 n          1 MOL       0.000000
     12 H3          20.1560    39.6340    37.1000 hn         1 MOL       0.000000
     13 O1          21.7070    38.1570    35.8980 o          1 MOL       0.000000
     14 N5          23.7440    37.0200    37.4470 nh         1 MOL       0.000000
     15 C6          24.6830    36.4960    38.1550 c1         1 MOL       0.000000
     16 H4          23.7050    37.9980    41.1310 hn         1 MOL       0.000000
     17 C7          25.7360    35.5950    37.7380 c3         1 MOL       0.000000
     18 O2          25.2130    34.3210    37.3970 oh         1 MOL       0.000000
     19 H5          24.9850    34.3000    36.3930 ho         1 MOL       0.000000
     20 H6          24.5730    36.7110    38.6690 h1         1 MOL       0.000000
     21 H7          24.6160    35.9690    40.2510 h1         1 MOL       0.000000
     22 H8          25.6450    37.3370    39.8990 h1         1 MOL       0.000000
     23 H9          23.7140    36.7940    36.4890 hn         1 MOL       0.000000
     24 H10         26.2320    36.0090    36.8850 h1         1 MOL       0.000000
     25 H11         26.4220    35.4740    38.5510 h1         1 MOL       0.000000
@<TRIPOS>BOND
     1     1     2 1   
     2     1    20 1   
     3     1    21 1   
     4     1    22 1   
     5     2    16 1   
     6     3     4 1   
     7     3     2 1   
     8     5     6 1   
     9     5     4 2   
    10     6     8 1   
    11     7     6 1   
    12     9     3 2   
    13    10    11 1   
    14    10     9 1   
    15    11     5 1   
    16    12    11 1   
    17    13    10 2   
    18    14     9 1   
    19    14    15 3   
    20    14    23 1   
    21    17    15 1   
    22    17    24 1   
    23    17    25 1   
    24    18    17 1   
    25    19    18 1   
@<TRIPOS>SUBSTRUCTURE
     1 MOL         1 TEMP              0 ****  ****    0 ROOT
