MODEL 1
REMARK VINA RESULT:      -7.4      0.000      0.000
REMARK  2 active torsions:
REMARK  status: ('A' for Active; 'I' for Inactive)
REMARK    1  A    between atoms: CA_15  and  C5_16 
REMARK    2  A    between atoms: C5_16  and  O1_17 
ROOT
ATOM      1  C   UNL d          24.451  37.328  36.036  0.00  0.00     0.141 A 
ATOM      2  N   UNL d          23.517  38.230  36.399  0.00  0.00    -0.371 N 
ATOM      3  C1  UNL d          23.030  38.364  37.690  0.00  0.00     0.179 A 
ATOM      4  N1  UNL d          22.157  39.231  37.953  0.00  0.00    -0.045 NA
ATOM      5  C2  UNL d          21.619  39.427  39.218  0.00  0.00     0.703 A 
ATOM      6  N2  UNL d          20.770  40.279  39.447  0.00  0.00    -0.233 N 
ATOM      7  H   UNL d          20.398  40.391  40.401  0.00  0.00     0.174 HD
ATOM      8  H3  UNL d          20.428  40.883  38.686  0.00  0.00     0.174 HD
ATOM      9  C3  UNL d          23.512  37.533  38.696  0.00  0.00     0.193 A 
ATOM     10  C4  UNL d          23.031  37.651  40.020  0.00  0.00     0.294 A 
ATOM     11  N3  UNL d          22.134  38.582  40.160  0.00  0.00    -0.152 N 
ATOM     12  H4  UNL d          21.758  38.698  41.112  0.00  0.00     0.187 HD
ATOM     13  O   UNL d          23.447  36.924  40.923  0.00  0.00    -0.265 OA
ATOM     14  N4  UNL d          24.522  36.540  38.367  0.00  0.00    -0.140 NA
ATOM     15 CA   UNL d          25.018  36.359  37.192  0.00  0.00     0.000 Ca
ATOM     16  H8  UNL d          23.143  38.857  35.673  0.00  0.00     0.161 HD
ENDROOT
BRANCH  15  17
ATOM     17  C5  UNL d          26.020  35.404  36.770  0.00  0.00     0.190 C 
BRANCH  17  18
ATOM     18  O1  UNL d          25.921  35.142  35.379  0.00  0.00    -0.399 OA
ATOM     19  H5  UNL d          26.239  35.967  34.851  0.00  0.00     0.209 HD
ENDBRANCH  17  18
ENDBRANCH  15  17
TORSDOF 2
ENDMDL
MODEL 2
REMARK VINA RESULT:      -7.3      1.869      2.598
REMARK  2 active torsions:
REMARK  status: ('A' for Active; 'I' for Inactive)
REMARK    1  A    between atoms: CA_15  and  C5_16 
REMARK    2  A    between atoms: C5_16  and  O1_17 
ROOT
ATOM      1  C   UNL d          24.688  36.894  39.717  0.00  0.00     0.141 A 
ATOM      2  N   UNL d          23.718  37.732  40.136  0.00  0.00    -0.371 N 
ATOM      3  C1  UNL d          22.737  38.258  39.308  0.00  0.00     0.179 A 
ATOM      4  N1  UNL d          21.863  39.035  39.773  0.00  0.00    -0.045 NA
ATOM      5  C2  UNL d          20.851  39.602  39.012  0.00  0.00     0.703 A 
ATOM      6  N2  UNL d          20.012  40.356  39.489  0.00  0.00    -0.233 N 
ATOM      7  H   UNL d          19.277  40.755  38.888  0.00  0.00     0.174 HD
ATOM      8  H3  UNL d          20.042  40.591  40.491  0.00  0.00     0.174 HD
ATOM      9  C3  UNL d          22.724  37.921  37.959  0.00  0.00     0.193 A 
ATOM     10  C4  UNL d          21.734  38.444  37.096  0.00  0.00     0.294 A 
ATOM     11  N3  UNL d          20.892  39.233  37.697  0.00  0.00    -0.152 N 
ATOM     12  H4  UNL d          20.156  39.634  37.100  0.00  0.00     0.187 HD
ATOM     13  O   UNL d          21.707  38.157  35.898  0.00  0.00    -0.265 OA
ATOM     14  N4  UNL d          23.744  37.020  37.447  0.00  0.00    -0.140 NA
ATOM     15 CA   UNL d          24.683  36.496  38.155  0.00  0.00     0.000 Ca
ATOM     16  H8  UNL d          23.705  37.998  41.131  0.00  0.00     0.161 HD
ENDROOT
BRANCH  15  17
ATOM     17  C5  UNL d          25.736  35.595  37.738  0.00  0.00     0.190 C 
BRANCH  17  18
ATOM     18  O1  UNL d          25.213  34.321  37.397  0.00  0.00    -0.399 OA
ATOM     19  H5  UNL d          24.985  34.300  36.393  0.00  0.00     0.209 HD
ENDBRANCH  17  18
ENDBRANCH  15  17
TORSDOF 2
ENDMDL
MODEL 3
REMARK VINA RESULT:      -7.0      2.287      5.331
REMARK  2 active torsions:
REMARK  status: ('A' for Active; 'I' for Inactive)
REMARK    1  A    between atoms: CA_15  and  C5_16 
REMARK    2  A    between atoms: C5_16  and  O1_17 
ROOT
ATOM      1  C   UNL d          23.072  37.349  40.253  0.00  0.00     0.141 A 
ATOM      2  N   UNL d          24.195  36.608  40.168  0.00  0.00    -0.371 N 
ATOM      3  C1  UNL d          24.877  36.367  38.985  0.00  0.00     0.179 A 
ATOM      4  N1  UNL d          25.920  35.664  38.984  0.00  0.00    -0.045 NA
ATOM      5  C2  UNL d          26.658  35.377  37.844  0.00  0.00     0.703 A 
ATOM      6  N2  UNL d          27.671  34.689  37.871  0.00  0.00    -0.233 N 
ATOM      7  H   UNL d          28.189  34.501  37.001  0.00  0.00     0.174 HD
ATOM      8  H3  UNL d          28.005  34.300  38.764  0.00  0.00     0.174 HD
ATOM      9  C3  UNL d          24.400  36.907  37.795  0.00  0.00     0.193 A 
ATOM     10  C4  UNL d          25.078  36.676  36.576  0.00  0.00     0.294 A 
ATOM     11  N3  UNL d          26.139  35.936  36.710  0.00  0.00    -0.152 N 
ATOM     12  H4  UNL d          26.660  35.745  35.843  0.00  0.00     0.187 HD
ATOM     13  O   UNL d          24.670  37.147  35.513  0.00  0.00    -0.265 OA
ATOM     14  N4  UNL d          23.193  37.717  37.822  0.00  0.00    -0.140 NA
ATOM     15 CA   UNL d          22.509  37.981  38.881  0.00  0.00     0.000 Ca
ATOM     16  H8  UNL d          24.569  36.195  41.034  0.00  0.00     0.161 HD
ENDROOT
BRANCH  15  17
ATOM     17  C5  UNL d          21.304  38.771  39.007  0.00  0.00     0.190 C 
BRANCH  17  18
ATOM     18  O1  UNL d          21.587  40.053  39.547  0.00  0.00    -0.399 OA
ATOM     19  H5  UNL d          22.045  39.946  40.463  0.00  0.00     0.209 HD
ENDBRANCH  17  18
ENDBRANCH  15  17
TORSDOF 2
ENDMDL
