@<TRIPOS>MOLECULE
MOL
   25    25     1     0     0
SMALL
No Charge or Current Charge


@<TRIPOS>ATOM
      1 C1          23.0720    37.3490    40.2530 c3         1 MOL       0.000000
      2 N1          24.1950    36.6080    40.1680 nh         1 MOL       0.000000
      3 C2          24.8770    36.3670    38.9850 cc         1 MOL       0.000000
      4 N2          25.9200    35.6640    38.9840 nc         1 MOL       0.000000
      5 C3          26.6580    35.3770    37.8440 cd         1 MOL       0.000000
      6 N3          27.6710    34.6890    37.8710 nh         1 MOL       0.000000
      7 H1          28.1890    34.5010    37.0010 hn         1 MOL       0.000000
      8 H2          28.0050    34.3000    38.7640 hn         1 MOL       0.000000
      9 C4          24.4000    36.9070    37.7950 cd         1 MOL       0.000000
     10 C5          25.0780    36.6760    36.5760 c          1 MOL       0.000000
     11 N4          26.1390    35.9360    36.7100 n          1 MOL       0.000000
     12 H3          26.6600    35.7450    35.8430 hn         1 MOL       0.000000
     13 O1          24.6700    37.1470    35.5130 o          1 MOL       0.000000
     14 N5          23.1930    37.7170    37.8220 nh         1 MOL       0.000000
     15 C6          22.5090    37.9810    38.8810 c1         1 MOL       0.000000
     16 H4          24.5690    36.1950    41.0340 hn         1 MOL       0.000000
     17 C7          21.3040    38.7710    39.0070 c3         1 MOL       0.000000
     18 O2          21.5870    40.0530    39.5470 oh         1 MOL       0.000000
     19 H5          22.0450    39.9460    40.4630 ho         1 MOL       0.000000
     20 H6          22.8070    37.7080    39.2810 h1         1 MOL       0.000000
     21 H7          23.2410    38.1790    40.9060 h1         1 MOL       0.000000
     22 H8          22.2760    36.7470    40.6400 h1         1 MOL       0.000000
     23 H9          22.8750    38.0910    36.9680 hn         1 MOL       0.000000
     24 H10         20.6190    38.2630    39.6530 h1         1 MOL       0.000000
     25 H11         20.8780    38.8990    38.0340 h1         1 MOL       0.000000
@<TRIPOS>BOND
     1     1    20 1   
     2     1    21 1   
     3     1    22 1   
     4     2     1 1   
     5     2    16 1   
     6     3     2 1   
     7     4     3 1   
     8     5     6 1   
     9     5     4 2   
    10     6     8 1   
    11     7     6 1   
    12     9    14 1   
    13     9     3 2   
    14    10    11 1   
    15    10     9 1   
    16    11     5 1   
    17    12    11 1   
    18    13    10 2   
    19    14    15 3   
    20    14    23 1   
    21    15    17 1   
    22    17    18 1   
    23    17    24 1   
    24    17    25 1   
    25    18    19 1   
@<TRIPOS>SUBSTRUCTURE
     1 MOL         1 TEMP              0 ****  ****    0 ROOT
