@<TRIPOS>MOLECULE
MOL
   27    28     1     0     0
SMALL
No Charge or Current Charge


@<TRIPOS>ATOM
      1 N1         -11.1470    55.5230    48.8440 na         1 MOL       0.000000
      2 H1         -10.1320    55.3560    48.8040 hn         1 MOL       0.000000
      3 C1         -11.9560    55.6600    47.8080 cc         1 MOL       0.000000
      4 N2         -13.1200    55.8510    48.1500 nd         1 MOL       0.000000
      5 C2         -13.2750    55.8700    49.5680 cd         1 MOL       0.000000
      6 C3         -14.4420    56.0570    50.4810 c          1 MOL       0.000000
      7 N3         -14.1560    56.0020    51.8510 n          1 MOL       0.000000
      8 H2         -14.9310    56.1260    52.5180 hn         1 MOL       0.000000
      9 N4         -12.7740    55.7730    52.3940 n          1 MOL       0.000000
     10 H3         -12.6480    55.7450    53.4160 hn         1 MOL       0.000000
     11 C4         -11.6420    55.5920    51.5770 c          1 MOL       0.000000
     12 O1         -10.4720    55.3980    52.0200 o          1 MOL       0.000000
     13 C5         -11.9440    55.6490    50.0510 cc         1 MOL       0.000000
     14 O2         -15.5660    56.2450    50.0210 o          1 MOL       0.000000
     15 C6         -11.4570    55.5790    46.3630 c3         1 MOL       0.000000
     16 C7         -10.6370    54.3120    45.9590 c3         1 MOL       0.000000
     17 C8         -11.4410    53.4960    44.8940 c3         1 MOL       0.000000
     18 C9         -12.1100    52.2290    45.4820 c3         1 MOL       0.000000
     19 H4         -12.3140    55.6250    45.7240 hc         1 MOL       0.000000
     20 H5         -10.7710    56.3940    46.2630 hc         1 MOL       0.000000
     21 H6          -9.6970    54.6110    45.5450 hc         1 MOL       0.000000
     22 H7         -10.4660    53.7040    46.8230 hc         1 MOL       0.000000
     23 H8         -12.2030    54.1260    44.4860 hc         1 MOL       0.000000
     24 H9         -10.7470    53.1740    44.1460 hc         1 MOL       0.000000
     25 H10        -12.8130    52.5140    46.2360 hc         1 MOL       0.000000
     26 H11        -11.3610    51.5980    45.9130 hc         1 MOL       0.000000
     27 H12        -12.6180    51.7000    44.7030 hc         1 MOL       0.000000
@<TRIPOS>BOND
     1     1    13 1   
     2     2     1 1   
     3     3     4 2   
     4     3     1 1   
     5     4     5 1   
     6     5    13 2   
     7     5     6 1   
     8     6     7 1   
     9     7     9 1   
    10     7     8 1   
    11     9    10 1   
    12    11    12 2   
    13    11     9 1   
    14    13    11 1   
    15    14     6 2   
    16    15     3 1   
    17    15    19 1   
    18    15    20 1   
    19    16    15 1   
    20    16    21 1   
    21    16    22 1   
    22    17    18 1   
    23    17    16 1   
    24    17    23 1   
    25    17    24 1   
    26    18    25 1   
    27    18    26 1   
    28    18    27 1   
@<TRIPOS>SUBSTRUCTURE
     1 MOL         1 TEMP              0 ****  ****    0 ROOT
