@<TRIPOS>MOLECULE
MOL
   27    28     1     0     0
SMALL
No Charge or Current Charge


@<TRIPOS>ATOM
      1 N1         -13.4170    57.9470    47.9010 na         1 MOL       0.000000
      2 H1         -13.4690    58.4910    47.0270 hn         1 MOL       0.000000
      3 C1         -12.9490    56.7170    48.0250 cc         1 MOL       0.000000
      4 N2         -13.0090    56.3140    49.1840 nd         1 MOL       0.000000
      5 C2         -13.5640    57.2840    50.0710 cd         1 MOL       0.000000
      6 C3         -13.8490    57.3060    51.5370 c          1 MOL       0.000000
      7 N3         -14.4130    58.4900    52.0280 n          1 MOL       0.000000
      8 H2         -14.6270    58.5510    53.0340 hn         1 MOL       0.000000
      9 N4         -14.7220    59.6760    51.1590 n          1 MOL       0.000000
     10 H3         -15.1360    60.5100    51.5990 hn         1 MOL       0.000000
     11 C4         -14.4740    59.7050    49.7740 c          1 MOL       0.000000
     12 O1         -14.7290    60.6970    49.0290 o          1 MOL       0.000000
     13 C5         -13.8460    58.3960    49.2130 cc         1 MOL       0.000000
     14 O2         -13.5920    56.3280    52.2340 o          1 MOL       0.000000
     15 C6         -12.4020    55.9240    46.8370 c3         1 MOL       0.000000
     16 C7         -10.8860    55.5460    46.8670 c3         1 MOL       0.000000
     17 C8         -10.7140    54.0690    46.3840 c3         1 MOL       0.000000
     18 C9         -11.5450    53.7460    45.1180 c3         1 MOL       0.000000
     19 H4         -12.9600    55.0130    46.7740 hc         1 MOL       0.000000
     20 H5         -12.5060    56.5790    45.9970 hc         1 MOL       0.000000
     21 H6         -10.3410    56.2000    46.2190 hc         1 MOL       0.000000
     22 H7         -10.5110    55.6440    47.8640 hc         1 MOL       0.000000
     23 H8          -9.6800    53.9000    46.1660 hc         1 MOL       0.000000
     24 H9         -11.0660    53.4320    47.1690 hc         1 MOL       0.000000
     25 H10        -11.2190    54.3670    44.3090 hc         1 MOL       0.000000
     26 H11        -12.5810    53.9310    45.3140 hc         1 MOL       0.000000
     27 H12        -11.4100    52.7180    44.8550 hc         1 MOL       0.000000
@<TRIPOS>BOND
     1     1     3 1   
     2     1    13 1   
     3     2     1 1   
     4     3     4 2   
     5     4     5 1   
     6     5     6 1   
     7     6     7 1   
     8     6    14 2   
     9     7     8 1   
    10     9    10 1   
    11     9     7 1   
    12    11     9 1   
    13    12    11 2   
    14    13    11 1   
    15    13     5 2   
    16    15    16 1   
    17    15     3 1   
    18    15    19 1   
    19    15    20 1   
    20    16    21 1   
    21    16    22 1   
    22    17    16 1   
    23    17    23 1   
    24    17    24 1   
    25    18    17 1   
    26    18    25 1   
    27    18    26 1   
    28    18    27 1   
@<TRIPOS>SUBSTRUCTURE
     1 MOL         1 TEMP              0 ****  ****    0 ROOT
