@<TRIPOS>MOLECULE
MOL
   27    28     1     0     0
SMALL
No Charge or Current Charge


@<TRIPOS>ATOM
      1 N1         -13.8320    55.0160    51.3490 na         1 MOL       0.000000
      2 H1         -14.0150    54.6420    52.2920 hn         1 MOL       0.000000
      3 C1         -14.4880    56.0020    50.7630 cc         1 MOL       0.000000
      4 N2         -14.0590    56.2390    49.6370 nd         1 MOL       0.000000
      5 C2         -12.9720    55.3880    49.2780 cd         1 MOL       0.000000
      6 C3         -12.1120    55.2600    48.0630 c          1 MOL       0.000000
      7 N3         -11.1270    54.2660    48.1180 n          1 MOL       0.000000
      8 H2         -10.5100    54.1420    47.3030 hn         1 MOL       0.000000
      9 N4         -10.9260    53.3720    49.3090 n          1 MOL       0.000000
     10 H3         -10.1770    52.6660    49.2700 hn         1 MOL       0.000000
     11 C4         -11.7090    53.4520    50.4760 c          1 MOL       0.000000
     12 O1         -11.5520    52.7050    51.4870 o          1 MOL       0.000000
     13 C5         -12.8090    54.5520    50.4300 cc         1 MOL       0.000000
     14 O2         -12.2900    55.9980    47.0960 o          1 MOL       0.000000
     15 C6         -15.6430    56.7390    51.4450 c3         1 MOL       0.000000
     16 C7         -15.3240    57.4870    52.7790 c3         1 MOL       0.000000
     17 C8         -14.5680    58.8170    52.4550 c3         1 MOL       0.000000
     18 C9         -15.0630    59.4910    51.1510 c3         1 MOL       0.000000
     19 H4         -16.4060    56.0180    51.6540 hc         1 MOL       0.000000
     20 H5         -15.9230    57.5090    50.7570 hc         1 MOL       0.000000
     21 H6         -14.7090    56.8680    53.3980 hc         1 MOL       0.000000
     22 H7         -16.2350    57.7080    53.2940 hc         1 MOL       0.000000
     23 H8         -14.7130    59.4980    53.2670 hc         1 MOL       0.000000
     24 H9         -13.5350    58.5730    52.3180 hc         1 MOL       0.000000
     25 H10        -16.0960    59.7490    51.2530 hc         1 MOL       0.000000
     26 H11        -14.9440    58.8130    50.3320 hc         1 MOL       0.000000
     27 H12        -14.4910    60.3760    50.9680 hc         1 MOL       0.000000
@<TRIPOS>BOND
     1     1     2 1   
     2     3     1 1   
     3     3    15 1   
     4     4     3 2   
     5     5     4 1   
     6     5    13 2   
     7     6     7 1   
     8     6     5 1   
     9     7     9 1   
    10     8     7 1   
    11     9    11 1   
    12    10     9 1   
    13    11    12 2   
    14    13    11 1   
    15    13     1 1   
    16    14     6 2   
    17    15    16 1   
    18    15    19 1   
    19    15    20 1   
    20    16    21 1   
    21    16    22 1   
    22    17    16 1   
    23    17    23 1   
    24    17    24 1   
    25    18    17 1   
    26    18    25 1   
    27    18    26 1   
    28    18    27 1   
@<TRIPOS>SUBSTRUCTURE
     1 MOL         1 TEMP              0 ****  ****    0 ROOT
