@<TRIPOS>MOLECULE
MOL
   22    21     1     0     0
SMALL
No Charge or Current Charge


@<TRIPOS>ATOM
      1 C1           1.3950     8.3050     9.6660 c3         1 MOL       0.000000
      2 C2           0.8510     9.0530    10.9280 c          1 MOL       0.000000
      3 O1           0.2530    10.1960    10.7350 o          1 MOL       0.000000
      4 O2           0.9700     8.5450    12.0500 oh         1 MOL       0.000000
      5 O3           1.0770     6.8780     9.8030 oh         1 MOL       0.000000
      6 H1           1.0880     6.6180    10.7990 ho         1 MOL       0.000000
      7 C3           2.9640     8.5050     9.4960 c3         1 MOL       0.000000
      8 C4           3.3570     8.5540     8.0210 c3         1 MOL       0.000000
      9 C5           3.4260     9.7640    10.2030 c3         1 MOL       0.000000
     10 C6           3.6120     7.2570    10.1460 c3         1 MOL       0.000000
     11 O4           4.0380     6.3300     9.1620 oh         1 MOL       0.000000
     12 H2           4.6510     6.8040     8.4850 ho         1 MOL       0.000000
     13 H3           0.9300     8.7110     8.7920 h1         1 MOL       0.000000
     14 H4           1.4070     7.7220    12.1480 ho         1 MOL       0.000000
     15 H5           3.0260     7.6610     7.5340 hc         1 MOL       0.000000
     16 H6           4.4210     8.6320     7.9380 hc         1 MOL       0.000000
     17 H7           2.9000     9.4030     7.5580 hc         1 MOL       0.000000
     18 H8           2.9720    10.6170     9.7450 hc         1 MOL       0.000000
     19 H9           4.4900     9.8440    10.1300 hc         1 MOL       0.000000
     20 H10          3.1420     9.7190    11.2340 hc         1 MOL       0.000000
     21 H11          4.4570     7.5640    10.7250 h1         1 MOL       0.000000
     22 H12          2.8820     6.7810    10.7670 h1         1 MOL       0.000000
@<TRIPOS>BOND
     1     1     5 1   
     2     1     2 1   
     3     1    13 1   
     4     2     4 1   
     5     3     2 2   
     6     4    14 1   
     7     5     6 1   
     8     7     1 1   
     9     7    10 1   
    10     7     9 1   
    11     8     7 1   
    12     8    15 1   
    13     8    16 1   
    14     8    17 1   
    15     9    18 1   
    16     9    19 1   
    17     9    20 1   
    18    10    21 1   
    19    10    22 1   
    20    11    10 1   
    21    12    11 1   
@<TRIPOS>SUBSTRUCTURE
     1 MOL         1 TEMP              0 ****  ****    0 ROOT
