@<TRIPOS>MOLECULE
MOL
   22    21     1     0     0
SMALL
No Charge or Current Charge


@<TRIPOS>ATOM
      1 C1           3.2130    -1.9700    17.0440 c3         1 MOL       0.000000
      2 C2           4.4520    -1.4100    17.8190 c          1 MOL       0.000000
      3 O1           5.1460    -0.4690    17.2390 o          1 MOL       0.000000
      4 O2           4.7240    -1.8380    18.9470 oh         1 MOL       0.000000
      5 O3           3.3130    -1.5400    15.6440 oh         1 MOL       0.000000
      6 H1           3.8720    -0.6770    15.5880 ho         1 MOL       0.000000
      7 C3           1.8450    -1.4610    17.6780 c3         1 MOL       0.000000
      8 C4           1.3970    -2.3710    18.8210 c3         1 MOL       0.000000
      9 C5           1.9770    -0.0320    18.1670 c3         1 MOL       0.000000
     10 C6           0.8040    -1.5430    16.5340 c3         1 MOL       0.000000
     11 O4           0.6450    -2.8760    16.0810 oh         1 MOL       0.000000
     12 H2          -0.3540    -3.1260    16.0910 ho         1 MOL       0.000000
     13 H3           3.2130    -3.0380    17.1100 h1         1 MOL       0.000000
     14 H4           4.2010    -2.5150    19.3300 ho         1 MOL       0.000000
     15 H5           1.3080    -3.3750    18.4630 hc         1 MOL       0.000000
     16 H6           0.4500    -2.0390    19.1910 hc         1 MOL       0.000000
     17 H7           2.1200    -2.3360    19.6090 hc         1 MOL       0.000000
     18 H8           2.2910     0.5940    17.3580 hc         1 MOL       0.000000
     19 H9           2.7020     0.0110    18.9530 hc         1 MOL       0.000000
     20 H10          1.0320     0.3080    18.5350 hc         1 MOL       0.000000
     21 H11         -0.1370    -1.1810    16.8920 h1         1 MOL       0.000000
     22 H12          1.1510    -0.9460    15.7160 h1         1 MOL       0.000000
@<TRIPOS>BOND
     1     1     7 1   
     2     1     2 1   
     3     1    13 1   
     4     2     4 1   
     5     3     2 2   
     6     4    14 1   
     7     5     1 1   
     8     6     5 1   
     9     7     9 1   
    10     7     8 1   
    11     8    15 1   
    12     8    16 1   
    13     8    17 1   
    14     9    18 1   
    15     9    19 1   
    16     9    20 1   
    17    10     7 1   
    18    10    21 1   
    19    10    22 1   
    20    11    12 1   
    21    11    10 1   
@<TRIPOS>SUBSTRUCTURE
     1 MOL         1 TEMP              0 ****  ****    0 ROOT
