@<TRIPOS>MOLECULE
MOL
   72    75     1     0     0
SMALL
No Charge or Current Charge


@<TRIPOS>ATOM
      1 C1          26.9100     0.8310     4.4820 ce         1 MOL       0.000000
      2 C2          27.9880     1.5780     4.5130 c2         1 MOL       0.000000
      3 C3          27.9580     3.1920     4.4710 c3         1 MOL       0.000000
      4 C4          28.6840     3.8640     5.7560 c3         1 MOL       0.000000
      5 C5          30.0730     3.0960     6.0730 c3         1 MOL       0.000000
      6 C6          30.1350     1.4090     6.0480 c3         1 MOL       0.000000
      7 C7          29.4270     0.9920     4.6170 c3         1 MOL       0.000000
      8 C8          29.6290    -0.6820     4.6910 c3         1 MOL       0.000000
      9 C9          31.0100    -0.8150     5.4800 c3         1 MOL       0.000000
     10 C10         31.4610     0.6660     5.7760 c3         1 MOL       0.000000
     11 C11         29.1910     1.0270     7.4380 c3         1 MOL       0.000000
     12 C12         25.4790     1.2360     4.4070 ce         1 MOL       0.000000
     13 C13         24.8730     2.4570     4.1410 c2         1 MOL       0.000000
     14 C14         23.3250     2.6810     4.0990 c3         1 MOL       0.000000
     15 C15         25.6700     3.8250     3.8240 c3         1 MOL       0.000000
     16 C16         22.8210     3.9430     4.9360 c3         1 MOL       0.000000
     17 C17         23.6270     5.2720     4.5050 c3         1 MOL       0.000000
     18 C18         25.2000     5.0880     4.6720 c3         1 MOL       0.000000
     19 C19         26.6800     3.9220     2.8720 c3         1 MOL       0.000000
     20 O1          23.0520     3.7140     6.3590 oh         1 MOL       0.000000
     21 H1          23.8180     4.3210     6.6840 ho         1 MOL       0.000000
     22 O2          25.9600     6.2860     4.2960 oh         1 MOL       0.000000
     23 H2          25.4820     6.7660     3.5200 ho         1 MOL       0.000000
     24 C20         32.5530     0.7900     7.0290 c3         1 MOL       0.000000
     25 C21         33.9200     0.2360     6.5760 c3         1 MOL       0.000000
     26 C22         32.2740     0.1290     8.4130 c2         1 MOL       0.000000
     27 C23         31.3530     0.5570     9.3220 c2         1 MOL       0.000000
     28 C24         31.2290     0.0980    10.7790 c3         1 MOL       0.000000
     29 C25         30.1250     1.0020    11.5340 cx         1 MOL       0.000000
     30 C26         29.1620    -0.0570    12.1190 cx         1 MOL       0.000000
     31 C27         28.8580     1.2020    11.2070 cx         1 MOL       0.000000
     32 O3          32.5410     0.0680    11.4020 oh         1 MOL       0.000000
     33 H3          32.5310    -0.5920    12.1930 ho         1 MOL       0.000000
     34 H4          27.0780    -0.1870     4.5140 ha         1 MOL       0.000000
     35 H5          26.9380     3.5150     4.4460 hc         1 MOL       0.000000
     36 H6          28.4930     3.5030     3.5980 hc         1 MOL       0.000000
     37 H7          28.0380     3.7920     6.6060 hc         1 MOL       0.000000
     38 H8          28.8920     4.8920     5.5440 hc         1 MOL       0.000000
     39 H9          30.3770     3.4010     7.0530 hc         1 MOL       0.000000
     40 H10         30.6990     3.3750     5.2520 hc         1 MOL       0.000000
     41 H11         29.8320     1.3830     3.7070 hc         1 MOL       0.000000
     42 H12         29.6980    -1.1090     3.7120 hc         1 MOL       0.000000
     43 H13         28.8140    -1.1950     5.1580 hc         1 MOL       0.000000
     44 H14         31.7390    -1.3160     4.8780 hc         1 MOL       0.000000
     45 H15         30.9040    -1.3880     6.3780 hc         1 MOL       0.000000
     46 H16         32.0030     1.0910     4.9570 hc         1 MOL       0.000000
     47 H17         29.1400    -0.0350     7.5530 hc         1 MOL       0.000000
     48 H18         28.2030     1.4210     7.3170 hc         1 MOL       0.000000
     49 H19         29.6430     1.4590     8.3060 hc         1 MOL       0.000000
     50 H20         24.8140     0.4670     4.5860 ha         1 MOL       0.000000
     51 H21         22.8490     1.8070     4.4920 hc         1 MOL       0.000000
     52 H22         23.0700     2.8700     3.0770 hc         1 MOL       0.000000
     53 H23         26.5250     3.6110     3.2170 hc         1 MOL       0.000000
     54 H24         21.7770     4.0750     4.7400 h1         1 MOL       0.000000
     55 H25         23.4110     5.4920     3.4800 hc         1 MOL       0.000000
     56 H26         23.3160     6.0720     5.1430 hc         1 MOL       0.000000
     57 H27         25.4030     4.9270     5.7100 h1         1 MOL       0.000000
     58 H28         26.5810     4.8450     2.3400 hc         1 MOL       0.000000
     59 H29         26.6030     3.1050     2.1860 hc         1 MOL       0.000000
     60 H30         27.6330     3.8910     3.3580 hc         1 MOL       0.000000
     61 H31         32.4900     1.8410     7.2220 hc         1 MOL       0.000000
     62 H32         33.8430    -0.8200     6.4190 hc         1 MOL       0.000000
     63 H33         34.6520     0.4320     7.3310 hc         1 MOL       0.000000
     64 H34         34.2130     0.7120     5.6630 hc         1 MOL       0.000000
     65 H35         32.8330    -0.7020     8.6620 ha         1 MOL       0.000000
     66 H36         30.6710     1.2600     8.9970 ha         1 MOL       0.000000
     67 H37         30.8690    -0.9080    10.8440 h1         1 MOL       0.000000
     68 H38         30.7850     1.8070    11.7820 hc         1 MOL       0.000000
     69 H39         29.1220    -1.0530    11.7300 hc         1 MOL       0.000000
     70 H40         28.8780    -0.4540    13.0710 hc         1 MOL       0.000000
     71 H41         28.5470     1.0540    10.1940 hc         1 MOL       0.000000
     72 H42         28.1960     2.0370    11.3030 hc         1 MOL       0.000000
@<TRIPOS>BOND
     1     1     2 2   
     2     1    34 1   
     3     2     7 1   
     4     3     2 1   
     5     3     4 1   
     6     3    35 1   
     7     3    36 1   
     8     4     5 1   
     9     4    37 1   
    10     4    38 1   
    11     5    39 1   
    12     5    40 1   
    13     6     7 1   
    14     6     5 1   
    15     6    11 1   
    16     7     8 1   
    17     7    41 1   
    18     8     9 1   
    19     8    42 1   
    20     8    43 1   
    21     9    10 1   
    22     9    44 1   
    23     9    45 1   
    24    10     6 1   
    25    10    24 1   
    26    10    46 1   
    27    11    47 1   
    28    11    48 1   
    29    11    49 1   
    30    12     1 1   
    31    12    50 1   
    32    13    12 2   
    33    14    13 1   
    34    14    16 1   
    35    14    51 1   
    36    14    52 1   
    37    15    13 1   
    38    15    18 1   
    39    15    53 1   
    40    16    20 1   
    41    16    54 1   
    42    17    18 1   
    43    17    16 1   
    44    17    55 1   
    45    17    56 1   
    46    18    57 1   
    47    19    15 1   
    48    19    58 1   
    49    19    59 1   
    50    19    60 1   
    51    20    21 1   
    52    22    18 1   
    53    23    22 1   
    54    24    26 1   
    55    24    61 1   
    56    25    24 1   
    57    25    62 1   
    58    25    63 1   
    59    25    64 1   
    60    26    27 2   
    61    26    65 1   
    62    27    28 1   
    63    27    66 1   
    64    28    32 1   
    65    28    29 1   
    66    28    67 1   
    67    29    30 1   
    68    29    68 1   
    69    30    69 1   
    70    30    70 1   
    71    31    29 1   
    72    31    30 1   
    73    31    71 1   
    74    31    72 1   
    75    32    33 1   
@<TRIPOS>SUBSTRUCTURE
     1 MOL         1 TEMP              0 ****  ****    0 ROOT
