MODEL 1
REMARK VINA RESULT:      -4.7      0.000      0.000
REMARK  8 active torsions:
REMARK  status: ('A' for Active; 'I' for Inactive)
REMARK    1  A    between atoms: O_1  and  C2_7 
REMARK    2  A    between atoms: O1_3  and  C_5 
REMARK    3  A    between atoms: C5_10  and  C6_11 
REMARK    4  A    between atoms: C16_21  and  C19_24 
REMARK    5  A    between atoms: C19_24  and  C20_25 
REMARK    6  A    between atoms: C21_26  and  C23_28 
REMARK    7  A    between atoms: C21_26  and  O2_31 
REMARK    8  A    between atoms: C21_26  and  C26_33 
ROOT
ATOM      1  C6  UNL d          39.531  12.527  12.127  0.00  0.00     0.004 C 
ATOM      2  C7  UNL d          39.115  12.967  13.291  0.00  0.00    -0.075 C 
ATOM      3  C8  UNL d          37.989  14.112  13.463  0.00  0.00     0.034 C 
ATOM      4  C10 UNL d          36.718  13.610  14.338  0.00  0.00     0.005 C 
ATOM      5  C11 UNL d          37.227  12.785  15.633  0.00  0.00     0.010 C 
ATOM      6  C12 UNL d          38.456  11.638  15.480  0.00  0.00    -0.032 C 
ATOM      7  C13 UNL d          39.648  12.419  14.648  0.00  0.00     0.023 C 
ATOM      8  C14 UNL d          40.818  11.203  14.640  0.00  0.00     0.010 C 
ATOM      9  C15 UNL d          40.547  10.474  16.034  0.00  0.00     0.007 C 
ATOM     10  C16 UNL d          39.344  11.258  16.684  0.00  0.00     0.002 C 
ATOM     11  C17 UNL d          37.650  10.415  14.572  0.00  0.00     0.016 C 
ENDROOT
BRANCH   1  12
ATOM     12  C5  UNL d          39.109  12.930  10.757  0.00  0.00     0.008 C 
ATOM     13  C4  UNL d          38.928  12.200   9.590  0.00  0.00    -0.048 C 
ATOM     14  C3  UNL d          38.463  12.817   8.228  0.00  0.00     0.071 C 
ATOM     15  C9  UNL d          39.158  10.607   9.460  0.00  0.00    -0.033 C 
ATOM     16  C2  UNL d          39.348  12.381   6.973  0.00  0.00     0.125 C 
ATOM     17  C1  UNL d          39.466  10.775   6.890  0.00  0.00     0.068 C 
ATOM     18  C   UNL d          40.063  10.157   8.231  0.00  0.00     0.153 C 
ATOM     19  C18 UNL d          38.599   9.678  10.333  0.00  0.00     0.022 C 
BRANCH  16  20
ATOM     20  O   UNL d          40.695  12.929   7.107  0.00  0.00    -0.395 OA
ATOM     21  H   UNL d          41.316  12.484   6.416  0.00  0.00     0.210 HD
ENDBRANCH  16  20
BRANCH  18  22
ATOM     22  O1  UNL d          40.191   8.696   8.179  0.00  0.00    -0.391 OA
ATOM     23  H1  UNL d          39.484   8.267   8.794  0.00  0.00     0.210 HD
ENDBRANCH  18  22
ENDBRANCH   1  12
BRANCH  10  24
ATOM     24  C19 UNL d          38.534  10.385  17.849  0.00  0.00     0.009 C 
ATOM     25  C22 UNL d          39.163   8.980  17.968  0.00  0.00     0.014 C 
BRANCH  24  26
ATOM     26  C20 UNL d          36.997  10.146  17.758  0.00  0.00    -0.024 C 
ATOM     27  C26 UNL d          36.390   8.930  17.654  0.00  0.00     0.001 C 
BRANCH  27  28
ATOM     28  C21 UNL d          34.919   8.671  17.308  0.00  0.00     0.144 C 
BRANCH  28  29
ATOM     29  C23 UNL d          34.227   7.836  18.504  0.00  0.00     0.018 A 
ATOM     30  C24 UNL d          33.171   6.989  17.758  0.00  0.00     0.008 A 
ATOM     31  C25 UNL d          33.005   7.961  18.998  0.00  0.00     0.008 A 
ENDBRANCH  28  29
BRANCH  28  32
ATOM     32  O2  UNL d          34.819   8.071  15.989  0.00  0.00    -0.391 OA
ATOM     33  H38 UNL d          35.764   7.918  15.608  0.00  0.00     0.210 HD
ENDBRANCH  28  32
ENDBRANCH  27  28
ENDBRANCH  24  26
ENDBRANCH  10  24
TORSDOF 8
ENDMDL
MODEL 2
REMARK VINA RESULT:      -2.1     13.600     16.020
REMARK  8 active torsions:
REMARK  status: ('A' for Active; 'I' for Inactive)
REMARK    1  A    between atoms: O_1  and  C2_7 
REMARK    2  A    between atoms: O1_3  and  C_5 
REMARK    3  A    between atoms: C5_10  and  C6_11 
REMARK    4  A    between atoms: C16_21  and  C19_24 
REMARK    5  A    between atoms: C19_24  and  C20_25 
REMARK    6  A    between atoms: C21_26  and  C23_28 
REMARK    7  A    between atoms: C21_26  and  O2_31 
REMARK    8  A    between atoms: C21_26  and  C26_33 
ROOT
ATOM      1  C6  UNL d          26.910   0.831   4.482  0.00  0.00     0.004 C 
ATOM      2  C7  UNL d          27.988   1.578   4.513  0.00  0.00    -0.075 C 
ATOM      3  C8  UNL d          27.958   3.192   4.471  0.00  0.00     0.034 C 
ATOM      4  C10 UNL d          28.684   3.864   5.756  0.00  0.00     0.005 C 
ATOM      5  C11 UNL d          30.073   3.096   6.073  0.00  0.00     0.010 C 
ATOM      6  C12 UNL d          30.135   1.409   6.048  0.00  0.00    -0.032 C 
ATOM      7  C13 UNL d          29.427   0.992   4.617  0.00  0.00     0.023 C 
ATOM      8  C14 UNL d          29.629  -0.682   4.691  0.00  0.00     0.010 C 
ATOM      9  C15 UNL d          31.010  -0.815   5.480  0.00  0.00     0.007 C 
ATOM     10  C16 UNL d          31.461   0.666   5.776  0.00  0.00     0.002 C 
ATOM     11  C17 UNL d          29.191   1.027   7.438  0.00  0.00     0.016 C 
ENDROOT
BRANCH   1  12
ATOM     12  C5  UNL d          25.479   1.236   4.407  0.00  0.00     0.008 C 
ATOM     13  C4  UNL d          24.873   2.457   4.141  0.00  0.00    -0.048 C 
ATOM     14  C3  UNL d          23.325   2.681   4.099  0.00  0.00     0.071 C 
ATOM     15  C9  UNL d          25.670   3.825   3.824  0.00  0.00    -0.033 C 
ATOM     16  C2  UNL d          22.821   3.943   4.936  0.00  0.00     0.125 C 
ATOM     17  C1  UNL d          23.627   5.272   4.505  0.00  0.00     0.068 C 
ATOM     18  C   UNL d          25.200   5.088   4.672  0.00  0.00     0.153 C 
ATOM     19  C18 UNL d          26.680   3.922   2.872  0.00  0.00     0.022 C 
BRANCH  16  20
ATOM     20  O   UNL d          23.052   3.714   6.359  0.00  0.00    -0.395 OA
ATOM     21  H   UNL d          23.818   4.321   6.684  0.00  0.00     0.210 HD
ENDBRANCH  16  20
BRANCH  18  22
ATOM     22  O1  UNL d          25.960   6.286   4.296  0.00  0.00    -0.391 OA
ATOM     23  H1  UNL d          25.482   6.766   3.520  0.00  0.00     0.210 HD
ENDBRANCH  18  22
ENDBRANCH   1  12
BRANCH  10  24
ATOM     24  C19 UNL d          32.553   0.790   7.029  0.00  0.00     0.009 C 
ATOM     25  C22 UNL d          33.920   0.236   6.576  0.00  0.00     0.014 C 
BRANCH  24  26
ATOM     26  C20 UNL d          32.274   0.129   8.413  0.00  0.00    -0.024 C 
ATOM     27  C26 UNL d          31.353   0.557   9.322  0.00  0.00     0.001 C 
BRANCH  27  28
ATOM     28  C21 UNL d          31.229   0.098  10.779  0.00  0.00     0.144 C 
BRANCH  28  29
ATOM     29  C23 UNL d          30.125   1.002  11.534  0.00  0.00     0.018 A 
ATOM     30  C24 UNL d          29.162  -0.057  12.119  0.00  0.00     0.008 A 
ATOM     31  C25 UNL d          28.858   1.202  11.207  0.00  0.00     0.008 A 
ENDBRANCH  28  29
BRANCH  28  32
ATOM     32  O2  UNL d          32.541   0.068  11.402  0.00  0.00    -0.391 OA
ATOM     33  H38 UNL d          32.531  -0.592  12.193  0.00  0.00     0.210 HD
ENDBRANCH  28  32
ENDBRANCH  27  28
ENDBRANCH  24  26
ENDBRANCH  10  24
TORSDOF 8
ENDMDL
MODEL 3
REMARK VINA RESULT:      -1.9     13.905     17.190
REMARK  8 active torsions:
REMARK  status: ('A' for Active; 'I' for Inactive)
REMARK    1  A    between atoms: O_1  and  C2_7 
REMARK    2  A    between atoms: O1_3  and  C_5 
REMARK    3  A    between atoms: C5_10  and  C6_11 
REMARK    4  A    between atoms: C16_21  and  C19_24 
REMARK    5  A    between atoms: C19_24  and  C20_25 
REMARK    6  A    between atoms: C21_26  and  C23_28 
REMARK    7  A    between atoms: C21_26  and  O2_31 
REMARK    8  A    between atoms: C21_26  and  C26_33 
ROOT
ATOM      1  C6  UNL d          30.763   1.588   6.417  0.00  0.00     0.004 C 
ATOM      2  C7  UNL d          30.291   0.929   5.386  0.00  0.00    -0.075 C 
ATOM      3  C8  UNL d          30.646  -0.615   5.073  0.00  0.00     0.034 C 
ATOM      4  C10 UNL d          29.327  -1.555   4.992  0.00  0.00     0.005 C 
ATOM      5  C11 UNL d          28.167  -0.812   4.143  0.00  0.00     0.010 C 
ATOM      6  C12 UNL d          27.835   0.821   4.409  0.00  0.00    -0.032 C 
ATOM      7  C13 UNL d          29.311   1.556   4.349  0.00  0.00     0.023 C 
ATOM      8  C14 UNL d          28.825   3.161   4.546  0.00  0.00     0.010 C 
ATOM      9  C15 UNL d          27.403   3.168   3.822  0.00  0.00     0.007 C 
ATOM     10  C16 UNL d          27.194   1.692   3.307  0.00  0.00     0.002 C 
ATOM     11  C17 UNL d          27.142   0.762   5.985  0.00  0.00     0.016 C 
ENDROOT
BRANCH   1  12
ATOM     12  C5  UNL d          31.680   1.128   7.495  0.00  0.00     0.008 C 
ATOM     13  C4  UNL d          31.441   0.515   8.718  0.00  0.00    -0.048 C 
ATOM     14  C3  UNL d          32.561   0.093   9.727  0.00  0.00     0.071 C 
ATOM     15  C9  UNL d          29.976   0.136   9.283  0.00  0.00    -0.033 C 
ATOM     16  C2  UNL d          32.297   0.553  11.232  0.00  0.00     0.125 C 
ATOM     17  C1  UNL d          30.839   0.074  11.727  0.00  0.00     0.068 C 
ATOM     18  C   UNL d          29.685   0.614  10.773  0.00  0.00     0.153 C 
ATOM     19  C18 UNL d          29.030  -0.572   8.546  0.00  0.00     0.022 C 
BRANCH  16  20
ATOM     20  O   UNL d          32.349   2.010  11.318  0.00  0.00    -0.395 OA
ATOM     21  H   UNL d          32.462   2.406  10.374  0.00  0.00     0.210 HD
ENDBRANCH  16  20
BRANCH  18  22
ATOM     22  O1  UNL d          28.345   0.201  11.206  0.00  0.00    -0.391 OA
ATOM     23  H1  UNL d          28.058  -0.639  10.683  0.00  0.00     0.210 HD
ENDBRANCH  18  22
ENDBRANCH   1  12
BRANCH  10  24
ATOM     24  C19 UNL d          25.600   1.311   3.012  0.00  0.00     0.009 C 
ATOM     25  C22 UNL d          25.347   1.300   1.489  0.00  0.00     0.014 C 
BRANCH  24  26
ATOM     26  C20 UNL d          24.440   2.156   3.620  0.00  0.00    -0.024 C 
ATOM     27  C26 UNL d          24.579   3.370   4.224  0.00  0.00     0.001 C 
BRANCH  27  28
ATOM     28  C21 UNL d          23.517   4.104   5.051  0.00  0.00     0.144 C 
BRANCH  28  29
ATOM     29  C23 UNL d          23.710   5.697   4.878  0.00  0.00     0.018 A 
ATOM     30  C24 UNL d          24.835   5.790   3.822  0.00  0.00     0.008 A 
ATOM     31  C25 UNL d          24.729   6.452   5.257  0.00  0.00     0.008 A 
ENDBRANCH  28  29
BRANCH  28  32
ATOM     32  O2  UNL d          23.534   3.619   6.421  0.00  0.00    -0.391 OA
ATOM     33  H38 UNL d          22.579   3.644   6.806  0.00  0.00     0.210 HD
ENDBRANCH  28  32
ENDBRANCH  27  28
ENDBRANCH  24  26
ENDBRANCH  10  24
TORSDOF 8
ENDMDL
