@<TRIPOS>MOLECULE
MOL
   72    75     1     0     0
SMALL
No Charge or Current Charge


@<TRIPOS>ATOM
      1 C1          39.5310    12.5270    12.1270 ce         1 MOL       0.000000
      2 C2          39.1150    12.9670    13.2910 c2         1 MOL       0.000000
      3 C3          37.9890    14.1120    13.4630 c3         1 MOL       0.000000
      4 C4          36.7180    13.6100    14.3380 c3         1 MOL       0.000000
      5 C5          37.2270    12.7850    15.6330 c3         1 MOL       0.000000
      6 C6          38.4560    11.6380    15.4800 c3         1 MOL       0.000000
      7 C7          39.6480    12.4190    14.6480 c3         1 MOL       0.000000
      8 C8          40.8180    11.2030    14.6400 c3         1 MOL       0.000000
      9 C9          40.5470    10.4740    16.0340 c3         1 MOL       0.000000
     10 C10         39.3440    11.2580    16.6840 c3         1 MOL       0.000000
     11 C11         37.6500    10.4150    14.5720 c3         1 MOL       0.000000
     12 C12         39.1090    12.9300    10.7570 ce         1 MOL       0.000000
     13 C13         38.9280    12.2000     9.5900 c2         1 MOL       0.000000
     14 C14         38.4630    12.8170     8.2280 c3         1 MOL       0.000000
     15 C15         39.1580    10.6070     9.4600 c3         1 MOL       0.000000
     16 C16         39.3480    12.3810     6.9730 c3         1 MOL       0.000000
     17 C17         39.4660    10.7750     6.8900 c3         1 MOL       0.000000
     18 C18         40.0630    10.1570     8.2310 c3         1 MOL       0.000000
     19 C19         38.5990     9.6780    10.3330 c3         1 MOL       0.000000
     20 O1          40.6950    12.9290     7.1070 oh         1 MOL       0.000000
     21 H1          41.3160    12.4840     6.4160 ho         1 MOL       0.000000
     22 O2          40.1910     8.6960     8.1790 oh         1 MOL       0.000000
     23 H2          39.4840     8.2670     8.7940 ho         1 MOL       0.000000
     24 C20         38.5340    10.3850    17.8490 c3         1 MOL       0.000000
     25 C21         39.1630     8.9800    17.9680 c3         1 MOL       0.000000
     26 C22         36.9970    10.1460    17.7580 c2         1 MOL       0.000000
     27 C23         36.3900     8.9300    17.6540 c2         1 MOL       0.000000
     28 C24         34.9190     8.6710    17.3080 c3         1 MOL       0.000000
     29 C25         34.2270     7.8360    18.5040 cx         1 MOL       0.000000
     30 C26         33.1710     6.9890    17.7580 cx         1 MOL       0.000000
     31 C27         33.0050     7.9610    18.9980 cx         1 MOL       0.000000
     32 O3          34.8190     8.0710    15.9890 oh         1 MOL       0.000000
     33 H3          35.7640     7.9180    15.6080 ho         1 MOL       0.000000
     34 H4          40.2570    11.7940    12.1670 ha         1 MOL       0.000000
     35 H5          37.6440    14.4020    12.4930 hc         1 MOL       0.000000
     36 H6          38.4370    14.9320    13.9840 hc         1 MOL       0.000000
     37 H7          36.1010    12.9770    13.7350 hc         1 MOL       0.000000
     38 H8          36.1580    14.4620    14.6630 hc         1 MOL       0.000000
     39 H9          36.3740    12.2720    16.0260 hc         1 MOL       0.000000
     40 H10         37.6740    13.5410    16.2440 hc         1 MOL       0.000000
     41 H11         40.0480    13.3270    15.0490 hc         1 MOL       0.000000
     42 H12         41.8050    11.6140    14.6010 hc         1 MOL       0.000000
     43 H13         40.7580    10.5520    13.7930 hc         1 MOL       0.000000
     44 H14         41.4130    10.5290    16.6600 hc         1 MOL       0.000000
     45 H15         40.3240     9.4350    15.9050 hc         1 MOL       0.000000
     46 H16         39.6740    12.1170    17.2300 hc         1 MOL       0.000000
     47 H17         37.0870    10.8690    13.7840 hc         1 MOL       0.000000
     48 H18         36.9890     9.8710    15.2140 hc         1 MOL       0.000000
     49 H19         38.3730     9.7460    14.1550 hc         1 MOL       0.000000
     50 H20         38.9150    13.9390    10.6560 ha         1 MOL       0.000000
     51 H21         37.4530    12.5110     8.0490 hc         1 MOL       0.000000
     52 H22         38.5660    13.8780     8.3210 hc         1 MOL       0.000000
     53 H23         38.8200    10.1100    10.3450 hc         1 MOL       0.000000
     54 H24         38.8760    12.7530     6.0880 h1         1 MOL       0.000000
     55 H25         40.1080    10.5160     6.0740 hc         1 MOL       0.000000
     56 H26         38.4830    10.3760     6.7480 hc         1 MOL       0.000000
     57 H27         41.0570    10.5340     8.3530 h1         1 MOL       0.000000
     58 H28         38.2240     8.8450     9.7750 hc         1 MOL       0.000000
     59 H29         37.7970    10.1350    10.8750 hc         1 MOL       0.000000
     60 H30         39.3460     9.3390    11.0200 hc         1 MOL       0.000000
     61 H31         38.6480    11.0460    18.6830 hc         1 MOL       0.000000
     62 H32         38.9750     8.4280    17.0710 hc         1 MOL       0.000000
     63 H33         38.7310     8.4650    18.8000 hc         1 MOL       0.000000
     64 H34         40.2190     9.0730    18.1150 hc         1 MOL       0.000000
     65 H35         36.3870    10.9780    17.7780 ha         1 MOL       0.000000
     66 H36         36.9800     8.1010    17.8250 ha         1 MOL       0.000000
     67 H37         34.3650     9.5840    17.2380 h1         1 MOL       0.000000
     68 H38         35.0940     7.7890    19.1300 hc         1 MOL       0.000000
     69 H39         33.1250     5.9260    17.8700 hc         1 MOL       0.000000
     70 H40         32.7840     6.8680    16.7680 hc         1 MOL       0.000000
     71 H41         32.7830     7.5510    19.9610 hc         1 MOL       0.000000
     72 H42         32.3730     8.8020    19.1950 hc         1 MOL       0.000000
@<TRIPOS>BOND
     1     1     2 2   
     2     1    34 1   
     3     2     3 1   
     4     2     7 1   
     5     3     4 1   
     6     3    35 1   
     7     3    36 1   
     8     4     5 1   
     9     4    37 1   
    10     4    38 1   
    11     5    39 1   
    12     5    40 1   
    13     6     7 1   
    14     6     5 1   
    15     7    41 1   
    16     8     7 1   
    17     8     9 1   
    18     8    42 1   
    19     8    43 1   
    20     9    10 1   
    21     9    44 1   
    22     9    45 1   
    23    10     6 1   
    24    10    24 1   
    25    10    46 1   
    26    11     6 1   
    27    11    47 1   
    28    11    48 1   
    29    11    49 1   
    30    12     1 1   
    31    12    50 1   
    32    13    12 2   
    33    14    13 1   
    34    14    51 1   
    35    14    52 1   
    36    15    18 1   
    37    15    13 1   
    38    15    19 1   
    39    15    53 1   
    40    16    20 1   
    41    16    14 1   
    42    16    54 1   
    43    17    16 1   
    44    17    18 1   
    45    17    55 1   
    46    17    56 1   
    47    18    57 1   
    48    19    58 1   
    49    19    59 1   
    50    19    60 1   
    51    21    20 1   
    52    22    18 1   
    53    22    23 1   
    54    24    25 1   
    55    24    61 1   
    56    25    62 1   
    57    25    63 1   
    58    25    64 1   
    59    26    24 1   
    60    26    65 1   
    61    27    26 2   
    62    27    66 1   
    63    28    27 1   
    64    28    29 1   
    65    28    67 1   
    66    29    31 1   
    67    29    68 1   
    68    30    29 1   
    69    30    31 1   
    70    30    69 1   
    71    30    70 1   
    72    31    71 1   
    73    31    72 1   
    74    32    28 1   
    75    33    32 1   
@<TRIPOS>SUBSTRUCTURE
     1 MOL         1 TEMP              0 ****  ****    0 ROOT
