@<TRIPOS>MOLECULE
MOL
   72    75     1     0     0
SMALL
No Charge or Current Charge


@<TRIPOS>ATOM
      1 C1          30.7630     1.5880     6.4170 ce         1 MOL       0.000000
      2 C2          30.2910     0.9290     5.3860 c2         1 MOL       0.000000
      3 C3          30.6460    -0.6150     5.0730 c3         1 MOL       0.000000
      4 C4          29.3270    -1.5550     4.9920 c3         1 MOL       0.000000
      5 C5          28.1670    -0.8120     4.1430 c3         1 MOL       0.000000
      6 C6          27.8350     0.8210     4.4090 c3         1 MOL       0.000000
      7 C7          29.3110     1.5560     4.3490 c3         1 MOL       0.000000
      8 C8          28.8250     3.1610     4.5460 c3         1 MOL       0.000000
      9 C9          27.4030     3.1680     3.8220 c3         1 MOL       0.000000
     10 C10         27.1940     1.6920     3.3070 c3         1 MOL       0.000000
     11 C11         27.1420     0.7620     5.9850 c3         1 MOL       0.000000
     12 C12         31.6800     1.1280     7.4950 ce         1 MOL       0.000000
     13 C13         31.4410     0.5150     8.7180 c2         1 MOL       0.000000
     14 C14         32.5610     0.0930     9.7270 c3         1 MOL       0.000000
     15 C15         29.9760     0.1360     9.2830 c3         1 MOL       0.000000
     16 C16         32.2970     0.5530    11.2320 c3         1 MOL       0.000000
     17 C17         30.8390     0.0740    11.7270 c3         1 MOL       0.000000
     18 C18         29.6850     0.6140    10.7730 c3         1 MOL       0.000000
     19 C19         29.0300    -0.5720     8.5460 c3         1 MOL       0.000000
     20 O1          32.3490     2.0100    11.3180 oh         1 MOL       0.000000
     21 H1          32.4620     2.4060    10.3740 ho         1 MOL       0.000000
     22 O2          28.3450     0.2010    11.2060 oh         1 MOL       0.000000
     23 H2          28.0580    -0.6390    10.6830 ho         1 MOL       0.000000
     24 C20         25.6000     1.3110     3.0120 c3         1 MOL       0.000000
     25 C21         25.3470     1.3000     1.4890 c3         1 MOL       0.000000
     26 C22         24.4400     2.1560     3.6200 c2         1 MOL       0.000000
     27 C23         24.5790     3.3700     4.2240 c2         1 MOL       0.000000
     28 C24         23.5170     4.1040     5.0510 c3         1 MOL       0.000000
     29 C25         23.7100     5.6970     4.8780 cx         1 MOL       0.000000
     30 C26         24.8350     5.7900     3.8220 cx         1 MOL       0.000000
     31 C27         24.7290     6.4520     5.2570 cx         1 MOL       0.000000
     32 O3          23.5340     3.6190     6.4210 oh         1 MOL       0.000000
     33 H3          22.5790     3.6440     6.8060 ho         1 MOL       0.000000
     34 H4          30.4530     2.5700     6.4920 ha         1 MOL       0.000000
     35 H5          31.1600    -0.6650     4.1360 hc         1 MOL       0.000000
     36 H6          31.2530    -0.9770     5.8770 hc         1 MOL       0.000000
     37 H7          29.5790    -2.4780     4.5140 hc         1 MOL       0.000000
     38 H8          28.9700    -1.7440     5.9830 hc         1 MOL       0.000000
     39 H9          28.4310    -0.9080     3.1110 hc         1 MOL       0.000000
     40 H10         27.2730    -1.3000     4.4720 hc         1 MOL       0.000000
     41 H11         29.9070     1.4450     3.4670 hc         1 MOL       0.000000
     42 H12         28.7350     3.4160     5.5810 hc         1 MOL       0.000000
     43 H13         29.5160     3.8730     4.1460 hc         1 MOL       0.000000
     44 H14         26.6310     3.4370     4.5130 hc         1 MOL       0.000000
     45 H15         27.3640     3.8790     3.0240 hc         1 MOL       0.000000
     46 H16         27.6480     1.5340     2.3510 hc         1 MOL       0.000000
     47 H17         26.1910     0.2730     5.9390 hc         1 MOL       0.000000
     48 H18         27.0130     1.7580     6.3560 hc         1 MOL       0.000000
     49 H19         27.7910     0.2190     6.6400 hc         1 MOL       0.000000
     50 H20         32.6790     1.2960     7.2970 ha         1 MOL       0.000000
     51 H21         33.4850     0.5240     9.4020 hc         1 MOL       0.000000
     52 H22         32.5810    -0.9770     9.7330 hc         1 MOL       0.000000
     53 H23         29.3560    -0.2320     8.4920 hc         1 MOL       0.000000
     54 H24         33.0500     0.1110    11.8500 h1         1 MOL       0.000000
     55 H25         30.8100    -0.9960    11.7350 hc         1 MOL       0.000000
     56 H26         30.6730     0.4700    12.7070 hc         1 MOL       0.000000
     57 H27         29.6910     1.6830    10.8210 h1         1 MOL       0.000000
     58 H28         28.5300    -1.2700     9.1840 hc         1 MOL       0.000000
     59 H29         29.5180    -1.1000     7.7530 hc         1 MOL       0.000000
     60 H30         28.3160     0.1100     8.1340 hc         1 MOL       0.000000
     61 H31         25.5400     0.3740     3.5260 hc         1 MOL       0.000000
     62 H32         25.4380     2.2950     1.1050 hc         1 MOL       0.000000
     63 H33         24.3620     0.9310     1.2940 hc         1 MOL       0.000000
     64 H34         26.0660     0.6670     1.0130 hc         1 MOL       0.000000
     65 H35         23.4870     1.7640     3.5600 ha         1 MOL       0.000000
     66 H36         25.4900     3.8420     4.1140 ha         1 MOL       0.000000
     67 H37         22.5290     3.8950     4.6960 h1         1 MOL       0.000000
     68 H38         22.6950     5.9600     5.0910 hc         1 MOL       0.000000
     69 H39         24.7180     6.3680     2.9290 hc         1 MOL       0.000000
     70 H40         25.4880     5.1410     3.2770 hc         1 MOL       0.000000
     71 H41         24.5970     7.5110     5.3390 hc         1 MOL       0.000000
     72 H42         25.3660     6.4510     6.1170 hc         1 MOL       0.000000
@<TRIPOS>BOND
     1     1    12 1   
     2     1    34 1   
     3     2     1 2   
     4     3     2 1   
     5     3    35 1   
     6     3    36 1   
     7     4     3 1   
     8     4    37 1   
     9     4    38 1   
    10     5     6 1   
    11     5     4 1   
    12     5    39 1   
    13     5    40 1   
    14     6    10 1   
    15     6    11 1   
    16     7     6 1   
    17     7     8 1   
    18     7     2 1   
    19     7    41 1   
    20     8    42 1   
    21     8    43 1   
    22     9     8 1   
    23     9    44 1   
    24     9    45 1   
    25    10     9 1   
    26    10    46 1   
    27    11    47 1   
    28    11    48 1   
    29    11    49 1   
    30    12    13 2   
    31    12    50 1   
    32    13    15 1   
    33    13    14 1   
    34    14    16 1   
    35    14    51 1   
    36    14    52 1   
    37    15    18 1   
    38    15    53 1   
    39    16    20 1   
    40    16    17 1   
    41    16    54 1   
    42    17    55 1   
    43    17    56 1   
    44    18    22 1   
    45    18    17 1   
    46    18    57 1   
    47    19    15 1   
    48    19    58 1   
    49    19    59 1   
    50    19    60 1   
    51    21    20 1   
    52    23    22 1   
    53    24    10 1   
    54    24    26 1   
    55    24    61 1   
    56    25    24 1   
    57    25    62 1   
    58    25    63 1   
    59    25    64 1   
    60    26    27 2   
    61    26    65 1   
    62    27    28 1   
    63    27    66 1   
    64    28    32 1   
    65    28    67 1   
    66    29    28 1   
    67    29    31 1   
    68    29    68 1   
    69    30    29 1   
    70    30    31 1   
    71    30    69 1   
    72    30    70 1   
    73    31    71 1   
    74    31    72 1   
    75    32    33 1   
@<TRIPOS>SUBSTRUCTURE
     1 MOL         1 TEMP              0 ****  ****    0 ROOT
