@<TRIPOS>MOLECULE
MOL
   33    35     1     0     0
SMALL
No Charge or Current Charge


@<TRIPOS>ATOM
      1 C1          43.0920   111.5360    81.8250 c3         1 MOL       0.000000
      2 O1          42.7190   111.9000    83.1910 os         1 MOL       0.000000
      3 C2          44.5510   111.0540    81.8200 c3         1 MOL       0.000000
      4 C3          45.0650   111.2670    83.2730 c3         1 MOL       0.000000
      5 C4          43.8770   111.8680    84.0310 c3         1 MOL       0.000000
      6 N1          43.6530   111.4240    85.4450 na         1 MOL       0.000000
      7 C5          43.8290   110.1150    85.9600 cc         1 MOL       0.000000
      8 N2          43.5510   109.9650    87.2410 nd         1 MOL       0.000000
      9 C6          43.1580   111.2570    87.6290 ca         1 MOL       0.000000
     10 C7          42.7100   111.8180    88.8940 ca         1 MOL       0.000000
     11 C8          43.2190   112.1650    86.5360 ca         1 MOL       0.000000
     12 N3          42.5940   111.1060    90.0110 nh         1 MOL       0.000000
     13 N4          42.3910   113.1630    88.9190 nb         1 MOL       0.000000
     14 H1          42.2710   111.5580    90.8790 hn         1 MOL       0.000000
     15 H2          42.8270   110.1030    90.0090 hn         1 MOL       0.000000
     16 C9          42.4980   113.9240    87.7950 ca         1 MOL       0.000000
     17 C10         42.8990   113.5350    86.5570 ca         1 MOL       0.000000
     18 O2          46.2210   112.0840    83.4770 oh         1 MOL       0.000000
     19 H3          46.3830   112.2050    84.4870 ho         1 MOL       0.000000
     20 C11         42.4630   110.1210    81.7930 c3         1 MOL       0.000000
     21 O3          41.1860   110.0600    81.1610 oh         1 MOL       0.000000
     22 H4          40.6520   110.9130    81.3820 ho         1 MOL       0.000000
     23 O4          45.2090   111.8060    80.8000 oh         1 MOL       0.000000
     24 H5          44.5060   112.2520    80.1940 ho         1 MOL       0.000000
     25 H6          42.8660   112.3020    81.1120 h1         1 MOL       0.000000
     26 H7          44.7180   110.0230    81.5850 h1         1 MOL       0.000000
     27 H8          45.4080   110.3130    83.6150 h1         1 MOL       0.000000
     28 H9          44.1550   112.8800    84.2410 h2         1 MOL       0.000000
     29 H10         44.1530   109.3310    85.3720 h5         1 MOL       0.000000
     30 H11         42.2430   114.9190    87.8960 h4         1 MOL       0.000000
     31 H12         42.9610   114.1620    85.7390 ha         1 MOL       0.000000
     32 H13         43.1290   109.4700    81.2660 h1         1 MOL       0.000000
     33 H14         42.3150   109.8290    82.8120 h1         1 MOL       0.000000
@<TRIPOS>BOND
     1     1     3 1   
     2     1     2 1   
     3     1    25 1   
     4     2     5 1   
     5     3     4 1   
     6     3    26 1   
     7     4    18 1   
     8     4     5 1   
     9     4    27 1   
    10     5     6 1   
    11     5    28 1   
    12     6     7 1   
    13     6    11 1   
    14     7     8 2   
    15     7    29 1   
    16     8     9 1   
    17     9    10 ar  
    18    10    13 ar  
    19    10    12 1   
    20    11    17 ar  
    21    11     9 ar  
    22    12    14 1   
    23    15    12 1   
    24    16    13 ar  
    25    16    30 1   
    26    17    16 ar  
    27    17    31 1   
    28    18    19 1   
    29    20     1 1   
    30    20    32 1   
    31    20    33 1   
    32    21    22 1   
    33    21    20 1   
    34    23     3 1   
    35    24    23 1   
@<TRIPOS>SUBSTRUCTURE
     1 MOL         1 TEMP              0 ****  ****    0 ROOT
