@<TRIPOS>MOLECULE
MOL
   33    35     1     0     0
SMALL
No Charge or Current Charge


@<TRIPOS>ATOM
      1 C1          41.2810   110.8040    86.3140 c3         1 MOL       0.000000
      2 O1          41.7590   110.2200    85.0620 os         1 MOL       0.000000
      3 C2          42.1160   112.0560    86.6280 c3         1 MOL       0.000000
      4 C3          43.2110   112.1140    85.5250 c3         1 MOL       0.000000
      5 C4          42.9530   110.8880    84.6440 c3         1 MOL       0.000000
      6 N1          43.1390   111.0390    83.1630 na         1 MOL       0.000000
      7 C5          42.1170   111.1440    82.1870 cc         1 MOL       0.000000
      8 N2          42.5310   111.2540    80.9390 nd         1 MOL       0.000000
      9 C6          43.9290   111.2200    81.0690 ca         1 MOL       0.000000
     10 C7          45.0160   111.2830    80.1040 ca         1 MOL       0.000000
     11 C8          44.3180   111.0910    82.4310 ca         1 MOL       0.000000
     12 N3          44.8260   111.3990    78.7930 nh         1 MOL       0.000000
     13 N4          46.3080   111.2150    80.5920 nb         1 MOL       0.000000
     14 H1          45.6350   111.4390    78.1570 hn         1 MOL       0.000000
     15 H2          43.8700   111.4500    78.4140 hn         1 MOL       0.000000
     16 C9          46.5420   111.0960    81.9280 ca         1 MOL       0.000000
     17 C10         45.6310   111.0260    82.9320 ca         1 MOL       0.000000
     18 O2          44.5850   112.1300    85.9250 oh         1 MOL       0.000000
     19 H3          44.7510   112.9320    86.5500 ho         1 MOL       0.000000
     20 C11         40.0610   111.5710    85.7500 c3         1 MOL       0.000000
     21 O3          39.8170   112.8290    86.3770 oh         1 MOL       0.000000
     22 H4          38.8770   112.8260    86.7990 ho         1 MOL       0.000000
     23 O4          42.5780   111.8940    87.9700 oh         1 MOL       0.000000
     24 H5          42.8000   112.8170    88.3700 ho         1 MOL       0.000000
     25 H6          41.2170   110.0910    87.1100 h1         1 MOL       0.000000
     26 H7          41.6050   112.9960    86.6010 h1         1 MOL       0.000000
     27 H8          43.1100   113.0670    85.0490 h1         1 MOL       0.000000
     28 H9          43.7760   110.2290    84.8260 h2         1 MOL       0.000000
     29 H10         41.1150   111.1350    82.4360 h5         1 MOL       0.000000
     30 H11         47.5330   111.0540    82.2120 h4         1 MOL       0.000000
     31 H12         45.8700   110.9370    83.9320 ha         1 MOL       0.000000
     32 H13         39.1930   110.9590    85.8770 h1         1 MOL       0.000000
     33 H14         40.2770   111.7780    84.7230 h1         1 MOL       0.000000
@<TRIPOS>BOND
     1     1     3 1   
     2     1    25 1   
     3     2     1 1   
     4     3     4 1   
     5     3    23 1   
     6     3    26 1   
     7     4     5 1   
     8     4    18 1   
     9     4    27 1   
    10     5     2 1   
    11     5    28 1   
    12     6     5 1   
    13     7     6 1   
    14     7    29 1   
    15     8     9 1   
    16     8     7 2   
    17     9    11 ar  
    18    10    13 ar  
    19    10     9 ar  
    20    11    17 ar  
    21    11     6 1   
    22    12    10 1   
    23    13    16 ar  
    24    14    12 1   
    25    15    12 1   
    26    16    17 ar  
    27    16    30 1   
    28    17    31 1   
    29    18    19 1   
    30    20     1 1   
    31    20    21 1   
    32    20    32 1   
    33    20    33 1   
    34    21    22 1   
    35    23    24 1   
@<TRIPOS>SUBSTRUCTURE
     1 MOL         1 TEMP              0 ****  ****    0 ROOT
