@<TRIPOS>MOLECULE
MOL
   54    54     1     0     0
SMALL
No Charge or Current Charge


@<TRIPOS>ATOM
      1 C1          14.6450    -3.2830    13.5500 ca         1 MOL       0.000000
      2 N1          14.4250    -4.5610    13.9430 nb         1 MOL       0.000000
      3 C2          15.4330    -5.4490    13.9170 ca         1 MOL       0.000000
      4 N2          15.3880    -6.7210    14.2400 na         1 MOL       0.000000
      5 C3          16.6360    -7.2340    14.0470 cc         1 MOL       0.000000
      6 C4          16.6880    -5.1290    13.5400 ca         1 MOL       0.000000
      7 N3          17.5180    -6.2480    13.6450 nd         1 MOL       0.000000
      8 N4          15.8880    -2.9430    13.1630 nb         1 MOL       0.000000
      9 C5          16.9010    -3.8200    13.1420 ca         1 MOL       0.000000
     10 N5          13.6080    -2.4080    13.5860 nh         1 MOL       0.000000
     11 H1          13.5350    -1.8110    14.4220 hn         1 MOL       0.000000
     12 C6          12.5880    -2.2270    12.5630 c1         1 MOL       0.000000
     13 H2          12.7230    -2.9700    11.7650 ha         1 MOL       0.000000
     14 C7          11.2840    -2.5030    13.3180 c3         1 MOL       0.000000
     15 O1          10.6910    -1.2580    13.5940 oh         1 MOL       0.000000
     16 H3          11.1420    -0.5280    13.0240 ho         1 MOL       0.000000
     17 C8          12.5070    -0.8000    12.0180 c3         1 MOL       0.000000
     18 C9          12.9300    -0.6450    10.5720 c3         1 MOL       0.000000
     19 N6          18.1270    -3.4890    12.7150 nh         1 MOL       0.000000
     20 H4          18.8250    -3.1660    13.4010 hn         1 MOL       0.000000
     21 C10         18.5060    -3.5730    11.3060 c3         1 MOL       0.000000
     22 C11         17.6980    -2.6800    10.3940 ca         1 MOL       0.000000
     23 C12         18.0030    -1.3170    10.3020 ca         1 MOL       0.000000
     24 C13         17.2490    -0.4860     9.4640 ca         1 MOL       0.000000
     25 C14         16.1700    -1.0080     8.7450 ca         1 MOL       0.000000
     26 C15         15.8500    -2.3630     8.8550 ca         1 MOL       0.000000
     27 C16         16.6150    -3.1970     9.6770 ca         1 MOL       0.000000
     28 C17         14.0850    -7.2340    14.6930 c3         1 MOL       0.000000
     29 C18         13.3420    -7.7240    13.4510 c3         1 MOL       0.000000
     30 C19         14.2820    -8.1540    15.8680 c3         1 MOL       0.000000
     31 H5          16.8890    -8.2250    14.1830 h5         1 MOL       0.000000
     32 H6          10.8150    -3.2610    13.9100 h1         1 MOL       0.000000
     33 H7          12.3270    -2.4610    13.5530 h1         1 MOL       0.000000
     34 H8          11.1610    -2.7340    12.2810 h1         1 MOL       0.000000
     35 H9          11.8700    -1.6550    12.1140 hc         1 MOL       0.000000
     36 H10         11.9780     0.0760    12.3310 hc         1 MOL       0.000000
     37 H11         13.3740    -0.9310    12.6310 hc         1 MOL       0.000000
     38 H12         12.0630    -0.5140     9.9590 hc         1 MOL       0.000000
     39 H13         13.4590    -1.5210    10.2590 hc         1 MOL       0.000000
     40 H14         13.5670     0.2090    10.4760 hc         1 MOL       0.000000
     41 H15         19.5360    -3.2980    11.2190 h1         1 MOL       0.000000
     42 H16         18.3180    -4.5800    10.9960 h1         1 MOL       0.000000
     43 H17         18.7830    -0.9240    10.8520 ha         1 MOL       0.000000
     44 H18         17.4910     0.5140     9.3770 ha         1 MOL       0.000000
     45 H19         15.6110    -0.3930     8.1340 ha         1 MOL       0.000000
     46 H20         15.0500    -2.7490     8.3300 ha         1 MOL       0.000000
     47 H21         16.3790    -4.1990     9.7550 ha         1 MOL       0.000000
     48 H22         13.4240    -6.5070    15.1170 h1         1 MOL       0.000000
     49 H23         13.9310    -8.4650    12.9520 hc         1 MOL       0.000000
     50 H24         13.1700    -6.9000    12.7900 hc         1 MOL       0.000000
     51 H25         12.4040    -8.1500    13.7410 hc         1 MOL       0.000000
     52 H26         14.9380    -8.9530    15.5900 hc         1 MOL       0.000000
     53 H27         13.3370    -8.5560    16.1680 hc         1 MOL       0.000000
     54 H28         14.7110    -7.6070    16.6810 hc         1 MOL       0.000000
@<TRIPOS>BOND
     1     1    10 1   
     2     1     2 ar  
     3     3     2 ar  
     4     3     4 1   
     5     4    28 1   
     6     5     4 1   
     7     5    31 1   
     8     6     7 1   
     9     6     3 ar  
    10     7     5 2   
    11     8     1 ar  
    12     9     8 ar  
    13     9     6 ar  
    14    10    11 1   
    15    12    10 3   
    16    13    12 1   
    17    14    15 1   
    18    14    32 1   
    19    14    33 1   
    20    14    34 1   
    21    16    15 1   
    22    17    35 1   
    23    17    36 1   
    24    17    37 1   
    25    18    17 1   
    26    18    38 1   
    27    18    39 1   
    28    18    40 1   
    29    19     9 1   
    30    19    20 1   
    31    21    19 1   
    32    21    41 1   
    33    21    42 1   
    34    22    21 1   
    35    23    22 ar  
    36    23    43 1   
    37    24    23 ar  
    38    24    44 1   
    39    25    26 ar  
    40    25    24 ar  
    41    25    45 1   
    42    26    27 ar  
    43    26    46 1   
    44    27    22 ar  
    45    27    47 1   
    46    28    30 1   
    47    28    48 1   
    48    29    28 1   
    49    29    49 1   
    50    29    50 1   
    51    29    51 1   
    52    30    52 1   
    53    30    53 1   
    54    30    54 1   
@<TRIPOS>SUBSTRUCTURE
     1 MOL         1 TEMP              0 ****  ****    0 ROOT
