MODEL 1
REMARK VINA RESULT:      -7.5      0.000      0.000
REMARK  9 active torsions:
REMARK  status: ('A' for Active; 'I' for Inactive)
REMARK    1  A    between atoms: O_1  and  C_3 
REMARK    2  A    between atoms: C_3  and  CA_4 
REMARK    3  A    between atoms: CA_4  and  C1_6 
REMARK    4  A    between atoms: CA_4  and  N_8 
REMARK    5  A    between atoms: N_8  and  C3_10 
REMARK    6  A    between atoms: N2_13  and  C5_14 
REMARK    7  A    between atoms: C10_21  and  N5_22 
REMARK    8  A    between atoms: N5_22  and  C11_24 
REMARK    9  A    between atoms: C11_24  and  C12_25 
ROOT
ATOM      1  C3  UNL d          15.098  -4.287  13.906  0.00  0.00     0.745 A 
ATOM      2  N1  UNL d          16.045  -3.837  13.048  0.00  0.00    -0.041 NA
ATOM      3  C4  UNL d          15.678  -3.233  11.905  0.00  0.00     0.183 A 
ATOM      4  N2  UNL d          16.460  -2.762  10.962  0.00  0.00    -0.320 N 
ATOM      5  C8  UNL d          15.656  -2.252   9.986  0.00  0.00     0.212 A 
ATOM      6  C9  UNL d          14.390  -3.019  11.566  0.00  0.00     0.151 A 
ATOM      7  N3  UNL d          14.324  -2.347  10.342  0.00  0.00    -0.236 NA
ATOM      8  N4  UNL d          13.806  -4.089  13.584  0.00  0.00    -0.041 NA
ATOM      9  C10 UNL d          13.430  -3.481  12.451  0.00  0.00     0.176 A 
ENDROOT
BRANCH   1  10
ATOM     10  N   UNL d          15.498  -4.893  15.053  0.00  0.00    -0.114 N 
ATOM     11  H8  UNL d          15.880  -4.283  15.790  0.00  0.00     0.206 HD
BRANCH  10  12
ATOM     12 CA   UNL d          15.443  -6.318  15.346  0.00  0.00     0.000 Ca
ATOM     13  HA  UNL d          16.404  -6.652  15.760  0.00  0.00     0.000 HD
BRANCH  12  14
ATOM     14  C   UNL d          14.352  -6.410  16.419  0.00  0.00     0.190 C 
BRANCH  14  15
ATOM     15  O   UNL d          13.113  -6.423  15.753  0.00  0.00    -0.399 OA
ATOM     16  H   UNL d          12.711  -5.475  15.758  0.00  0.00     0.209 HD
ENDBRANCH  14  15
ENDBRANCH  12  14
BRANCH  12  17
ATOM     17  C1  UNL d          14.992  -7.174  14.162  0.00  0.00    -0.005 C 
ATOM     18  C2  UNL d          16.112  -7.665  13.268  0.00  0.00     0.005 C 
ENDBRANCH  12  17
ENDBRANCH  10  12
ENDBRANCH   1  10
BRANCH   9  19
ATOM     19  N5  UNL d          12.143  -3.325  12.113  0.00  0.00    -0.368 N 
ATOM     20  H17 UNL d          11.907  -3.092  11.138  0.00  0.00     0.161 HD
BRANCH  19  21
ATOM     21  C11 UNL d          11.063  -3.476  13.086  0.00  0.00     0.160 C 
BRANCH  21  22
ATOM     22  C12 UNL d          10.239  -2.227  13.295  0.00  0.00    -0.041 A 
ATOM     23  C13 UNL d          10.832  -0.967  13.153  0.00  0.00     0.009 A 
ATOM     24  C14 UNL d          10.071   0.190  13.356  0.00  0.00     0.001 A 
ATOM     25  C15 UNL d           8.730   0.092  13.734  0.00  0.00     0.000 A 
ATOM     26  C16 UNL d           8.144  -1.165  13.899  0.00  0.00     0.001 A 
ATOM     27  C17 UNL d           8.898  -2.322  13.678  0.00  0.00     0.009 A 
ENDBRANCH  21  22
ENDBRANCH  19  21
ENDBRANCH   9  19
BRANCH   4  28
ATOM     28  C5  UNL d          17.908  -2.902  11.184  0.00  0.00     0.084 C 
ATOM     29  C6  UNL d          18.365  -4.125  10.391  0.00  0.00     0.032 C 
ATOM     30  C7  UNL d          18.584  -1.572  10.978  0.00  0.00     0.032 C 
ENDBRANCH   4  28
TORSDOF 9
ENDMDL
MODEL 2
REMARK VINA RESULT:      -7.3      2.488      6.491
REMARK  9 active torsions:
REMARK  status: ('A' for Active; 'I' for Inactive)
REMARK    1  A    between atoms: O_1  and  C_3 
REMARK    2  A    between atoms: C_3  and  CA_4 
REMARK    3  A    between atoms: CA_4  and  C1_6 
REMARK    4  A    between atoms: CA_4  and  N_8 
REMARK    5  A    between atoms: N_8  and  C3_10 
REMARK    6  A    between atoms: N2_13  and  C5_14 
REMARK    7  A    between atoms: C10_21  and  N5_22 
REMARK    8  A    between atoms: N5_22  and  C11_24 
REMARK    9  A    between atoms: C11_24  and  C12_25 
ROOT
ATOM      1  C3  UNL d          14.645  -3.283  13.550  0.00  0.00     0.745 A 
ATOM      2  N1  UNL d          14.425  -4.561  13.943  0.00  0.00    -0.041 NA
ATOM      3  C4  UNL d          15.433  -5.449  13.917  0.00  0.00     0.183 A 
ATOM      4  N2  UNL d          15.388  -6.721  14.240  0.00  0.00    -0.320 N 
ATOM      5  C8  UNL d          16.636  -7.234  14.047  0.00  0.00     0.212 A 
ATOM      6  C9  UNL d          16.688  -5.129  13.540  0.00  0.00     0.151 A 
ATOM      7  N3  UNL d          17.518  -6.248  13.645  0.00  0.00    -0.236 NA
ATOM      8  N4  UNL d          15.888  -2.943  13.163  0.00  0.00    -0.041 NA
ATOM      9  C10 UNL d          16.901  -3.820  13.142  0.00  0.00     0.176 A 
ENDROOT
BRANCH   1  10
ATOM     10  N   UNL d          13.608  -2.408  13.586  0.00  0.00    -0.114 N 
ATOM     11  H8  UNL d          13.535  -1.811  14.422  0.00  0.00     0.206 HD
BRANCH  10  12
ATOM     12 CA   UNL d          12.588  -2.227  12.563  0.00  0.00     0.000 Ca
ATOM     13  HA  UNL d          12.723  -2.970  11.765  0.00  0.00     0.000 HD
BRANCH  12  14
ATOM     14  C   UNL d          11.284  -2.503  13.318  0.00  0.00     0.190 C 
BRANCH  14  15
ATOM     15  O   UNL d          10.691  -1.258  13.594  0.00  0.00    -0.399 OA
ATOM     16  H   UNL d          11.142  -0.528  13.024  0.00  0.00     0.209 HD
ENDBRANCH  14  15
ENDBRANCH  12  14
BRANCH  12  17
ATOM     17  C1  UNL d          12.507  -0.800  12.018  0.00  0.00    -0.005 C 
ATOM     18  C2  UNL d          12.930  -0.645  10.572  0.00  0.00     0.005 C 
ENDBRANCH  12  17
ENDBRANCH  10  12
ENDBRANCH   1  10
BRANCH   9  19
ATOM     19  N5  UNL d          18.127  -3.489  12.715  0.00  0.00    -0.368 N 
ATOM     20  H17 UNL d          18.825  -3.166  13.401  0.00  0.00     0.161 HD
BRANCH  19  21
ATOM     21  C11 UNL d          18.506  -3.573  11.306  0.00  0.00     0.160 C 
BRANCH  21  22
ATOM     22  C12 UNL d          17.698  -2.680  10.394  0.00  0.00    -0.041 A 
ATOM     23  C13 UNL d          18.003  -1.317  10.302  0.00  0.00     0.009 A 
ATOM     24  C14 UNL d          17.249  -0.486   9.464  0.00  0.00     0.001 A 
ATOM     25  C15 UNL d          16.170  -1.008   8.745  0.00  0.00     0.000 A 
ATOM     26  C16 UNL d          15.850  -2.363   8.855  0.00  0.00     0.001 A 
ATOM     27  C17 UNL d          16.615  -3.197   9.677  0.00  0.00     0.009 A 
ENDBRANCH  21  22
ENDBRANCH  19  21
ENDBRANCH   9  19
BRANCH   4  28
ATOM     28  C5  UNL d          14.085  -7.234  14.693  0.00  0.00     0.084 C 
ATOM     29  C6  UNL d          13.342  -7.724  13.451  0.00  0.00     0.032 C 
ATOM     30  C7  UNL d          14.282  -8.154  15.868  0.00  0.00     0.032 C 
ENDBRANCH   4  28
TORSDOF 9
ENDMDL
MODEL 3
REMARK VINA RESULT:      -7.3      3.802      5.644
REMARK  9 active torsions:
REMARK  status: ('A' for Active; 'I' for Inactive)
REMARK    1  A    between atoms: O_1  and  C_3 
REMARK    2  A    between atoms: C_3  and  CA_4 
REMARK    3  A    between atoms: CA_4  and  C1_6 
REMARK    4  A    between atoms: CA_4  and  N_8 
REMARK    5  A    between atoms: N_8  and  C3_10 
REMARK    6  A    between atoms: N2_13  and  C5_14 
REMARK    7  A    between atoms: C10_21  and  N5_22 
REMARK    8  A    between atoms: N5_22  and  C11_24 
REMARK    9  A    between atoms: C11_24  and  C12_25 
ROOT
ATOM      1  C3  UNL d          19.404  -3.252  11.329  0.00  0.00     0.745 A 
ATOM      2  N1  UNL d          20.425  -3.529  10.482  0.00  0.00    -0.041 NA
ATOM      3  C4  UNL d          20.554  -2.827   9.343  0.00  0.00     0.183 A 
ATOM      4  N2  UNL d          21.464  -2.979   8.409  0.00  0.00    -0.320 N 
ATOM      5  C8  UNL d          21.201  -2.064   7.433  0.00  0.00     0.212 A 
ATOM      6  C9  UNL d          19.724  -1.822   8.998  0.00  0.00     0.151 A 
ATOM      7  N3  UNL d          20.127  -1.266   7.781  0.00  0.00    -0.236 NA
ATOM      8  N4  UNL d          18.560  -2.256  11.002  0.00  0.00    -0.041 NA
ATOM      9  C10 UNL d          18.686  -1.547   9.872  0.00  0.00     0.176 A 
ENDROOT
BRANCH   1  10
ATOM     10  N   UNL d          19.297  -3.976  12.472  0.00  0.00    -0.114 N 
ATOM     11  H8  UNL d          19.827  -3.636  13.288  0.00  0.00     0.206 HD
BRANCH  10  12
ATOM     12 CA   UNL d          18.511  -5.187  12.663  0.00  0.00     0.000 Ca
ATOM     13  HA  UNL d          19.060  -5.893  13.301  0.00  0.00     0.000 HD
BRANCH  12  14
ATOM     14  C   UNL d          17.265  -4.681  13.395  0.00  0.00     0.190 C 
BRANCH  14  15
ATOM     15  O   UNL d          17.632  -4.451  14.733  0.00  0.00    -0.399 OA
ATOM     16  H   UNL d          18.576  -4.040  14.765  0.00  0.00     0.209 HD
ENDBRANCH  14  15
ENDBRANCH  12  14
BRANCH  12  17
ATOM     17  C1  UNL d          18.043  -5.830  11.356  0.00  0.00    -0.005 C 
ATOM     18  C2  UNL d          16.543  -5.843  11.153  0.00  0.00     0.005 C 
ENDBRANCH  12  17
ENDBRANCH  10  12
ENDBRANCH   1  10
BRANCH   9  19
ATOM     19  N5  UNL d          17.818  -0.586   9.528  0.00  0.00    -0.368 N 
ATOM     20  H17 UNL d          17.983   0.377   9.856  0.00  0.00     0.161 HD
BRANCH  19  21
ATOM     21  C11 UNL d          16.645  -0.861   8.702  0.00  0.00     0.160 C 
BRANCH  21  22
ATOM     22  C12 UNL d          15.383  -1.130   9.488  0.00  0.00    -0.041 A 
ATOM     23  C13 UNL d          15.104  -2.424   9.941  0.00  0.00     0.009 A 
ATOM     24  C14 UNL d          13.930  -2.676  10.661  0.00  0.00     0.001 A 
ATOM     25  C15 UNL d          13.018  -1.645  10.900  0.00  0.00     0.000 A 
ATOM     26  C16 UNL d          13.284  -0.358  10.427  0.00  0.00     0.001 A 
ATOM     27  C17 UNL d          14.465  -0.101   9.724  0.00  0.00     0.009 A 
ENDBRANCH  21  22
ENDBRANCH  19  21
ENDBRANCH   9  19
BRANCH   4  28
ATOM     28  C5  UNL d          22.466  -4.032   8.638  0.00  0.00     0.084 C 
ATOM     29  C6  UNL d          22.490  -4.906   7.385  0.00  0.00     0.032 C 
ATOM     30  C7  UNL d          23.739  -3.418   9.156  0.00  0.00     0.032 C 
ENDBRANCH   4  28
TORSDOF 9
ENDMDL
