@<TRIPOS>MOLECULE
MOL
   54    54     1     0     0
SMALL
No Charge or Current Charge


@<TRIPOS>ATOM
      1 C1          19.4040    -3.2520    11.3290 ca         1 MOL       0.000000
      2 N1          20.4250    -3.5290    10.4820 nb         1 MOL       0.000000
      3 C2          20.5540    -2.8270     9.3430 ca         1 MOL       0.000000
      4 N2          21.4640    -2.9790     8.4090 na         1 MOL       0.000000
      5 C3          21.2010    -2.0640     7.4330 cc         1 MOL       0.000000
      6 C4          19.7240    -1.8220     8.9980 ca         1 MOL       0.000000
      7 N3          20.1270    -1.2660     7.7810 nd         1 MOL       0.000000
      8 N4          18.5600    -2.2560    11.0020 nb         1 MOL       0.000000
      9 C5          18.6860    -1.5470     9.8720 ca         1 MOL       0.000000
     10 N5          19.2970    -3.9760    12.4720 nh         1 MOL       0.000000
     11 H1          19.8270    -3.6360    13.2880 hn         1 MOL       0.000000
     12 C6          18.5110    -5.1870    12.6630 c1         1 MOL       0.000000
     13 H2          19.0600    -5.8930    13.3010 ha         1 MOL       0.000000
     14 C7          17.2650    -4.6810    13.3950 c3         1 MOL       0.000000
     15 O1          17.6320    -4.4510    14.7330 oh         1 MOL       0.000000
     16 H3          18.5760    -4.0400    14.7650 ho         1 MOL       0.000000
     17 C8          18.0430    -5.8300    11.3560 c3         1 MOL       0.000000
     18 C9          16.5430    -5.8430    11.1530 c3         1 MOL       0.000000
     19 N6          17.8180    -0.5860     9.5280 nh         1 MOL       0.000000
     20 H4          17.9830     0.3770     9.8560 hn         1 MOL       0.000000
     21 C10         16.6450    -0.8610     8.7020 c3         1 MOL       0.000000
     22 C11         15.3830    -1.1300     9.4880 ca         1 MOL       0.000000
     23 C12         15.1040    -2.4240     9.9410 ca         1 MOL       0.000000
     24 C13         13.9300    -2.6760    10.6610 ca         1 MOL       0.000000
     25 C14         13.0180    -1.6450    10.9000 ca         1 MOL       0.000000
     26 C15         13.2840    -0.3580    10.4270 ca         1 MOL       0.000000
     27 C16         14.4650    -0.1010     9.7240 ca         1 MOL       0.000000
     28 C17         22.4660    -4.0320     8.6380 c3         1 MOL       0.000000
     29 C18         22.4900    -4.9060     7.3850 c3         1 MOL       0.000000
     30 C19         23.7390    -3.4180     9.1560 c3         1 MOL       0.000000
     31 H5          21.7320    -1.9790     6.5530 h5         1 MOL       0.000000
     32 H6          16.2840    -5.1080    13.3630 h1         1 MOL       0.000000
     33 H7          17.9630    -5.3560    12.9450 h1         1 MOL       0.000000
     34 H8          17.2690    -3.7540    12.8600 h1         1 MOL       0.000000
     35 H9          18.4530    -6.7680    11.0440 hc         1 MOL       0.000000
     36 H10         18.2610    -5.6720    12.3910 hc         1 MOL       0.000000
     37 H11         18.4750    -5.0410    10.7760 hc         1 MOL       0.000000
     38 H12         16.1110    -6.6320    11.7330 hc         1 MOL       0.000000
     39 H13         16.3250    -6.0010    10.1180 hc         1 MOL       0.000000
     40 H14         16.1330    -4.9050    11.4650 hc         1 MOL       0.000000
     41 H15         16.4730    -0.0140     8.0710 h1         1 MOL       0.000000
     42 H16         16.8600    -1.7520     8.1510 h1         1 MOL       0.000000
     43 H17         15.7640    -3.1930     9.7440 ha         1 MOL       0.000000
     44 H18         13.7380    -3.6260    11.0160 ha         1 MOL       0.000000
     45 H19         12.1500    -1.8340    11.4250 ha         1 MOL       0.000000
     46 H20         12.6080     0.4040    10.5970 ha         1 MOL       0.000000
     47 H21         14.6600     0.8510     9.3780 ha         1 MOL       0.000000
     48 H22         22.2410    -4.7200     9.4260 h1         1 MOL       0.000000
     49 H23         22.7100    -4.3000     6.5310 hc         1 MOL       0.000000
     50 H24         21.5350    -5.3700     7.2560 hc         1 MOL       0.000000
     51 H25         23.2420    -5.6600     7.4900 hc         1 MOL       0.000000
     52 H26         24.0950    -2.6910     8.4570 hc         1 MOL       0.000000
     53 H27         24.4780    -4.1820     9.2830 hc         1 MOL       0.000000
     54 H28         23.5500    -2.9450    10.0970 hc         1 MOL       0.000000
@<TRIPOS>BOND
     1     1    10 1   
     2     2     1 ar  
     3     3     2 ar  
     4     4    28 1   
     5     4     3 1   
     6     5     7 2   
     7     5     4 1   
     8     5    31 1   
     9     6     3 ar  
    10     6     9 ar  
    11     7     6 1   
    12     8     1 ar  
    13     9     8 ar  
    14    10    12 3   
    15    10    11 1   
    16    12    13 1   
    17    14    15 1   
    18    14    32 1   
    19    14    33 1   
    20    14    34 1   
    21    15    16 1   
    22    17    35 1   
    23    17    36 1   
    24    17    37 1   
    25    18    17 1   
    26    18    38 1   
    27    18    39 1   
    28    18    40 1   
    29    19    20 1   
    30    19     9 1   
    31    21    22 1   
    32    21    19 1   
    33    21    41 1   
    34    21    42 1   
    35    22    27 ar  
    36    22    23 ar  
    37    23    24 ar  
    38    23    43 1   
    39    24    25 ar  
    40    24    44 1   
    41    25    45 1   
    42    26    25 ar  
    43    26    46 1   
    44    27    26 ar  
    45    27    47 1   
    46    28    30 1   
    47    28    48 1   
    48    29    28 1   
    49    29    49 1   
    50    29    50 1   
    51    29    51 1   
    52    30    52 1   
    53    30    53 1   
    54    30    54 1   
@<TRIPOS>SUBSTRUCTURE
     1 MOL         1 TEMP              0 ****  ****    0 ROOT
