@<TRIPOS>MOLECULE
MOL
   40    41     1     0     0
SMALL
No Charge or Current Charge


@<TRIPOS>ATOM
      1 C1          31.9940     8.6650    25.1960 ce         1 MOL       0.000000
      2 C2          31.3940     9.8250    25.3960 cf         1 MOL       0.000000
      3 C3          32.3710     8.2580    23.7910 c3         1 MOL       0.000000
      4 C4          33.8760     8.2270    23.6370 c3         1 MOL       0.000000
      5 C5          32.3160     7.7320    26.3220 ca         1 MOL       0.000000
      6 C6          31.3500     6.8250    26.7310 ca         1 MOL       0.000000
      7 C7          31.6070     5.9730    27.7890 ca         1 MOL       0.000000
      8 C8          32.8240     6.0210    28.4370 ca         1 MOL       0.000000
      9 C9          33.7960     6.9370    28.0460 ca         1 MOL       0.000000
     10 C10         33.5420     7.8030    26.9820 ca         1 MOL       0.000000
     11 O1          33.0420     5.1670    29.4860 oh         1 MOL       0.000000
     12 H1          33.0460     4.1960    29.1430 ho         1 MOL       0.000000
     13 C11         31.1320    10.7000    24.2040 ca         1 MOL       0.000000
     14 C12         32.1300    11.4640    23.6010 ca         1 MOL       0.000000
     15 C13         31.8150    12.2520    22.4850 ca         1 MOL       0.000000
     16 C14         30.5110    12.2760    21.9830 ca         1 MOL       0.000000
     17 C15         29.5280    11.5140    22.5930 ca         1 MOL       0.000000
     18 C16         29.8390    10.7310    23.6990 ca         1 MOL       0.000000
     19 O2          30.1690    13.0460    20.8880 oh         1 MOL       0.000000
     20 H2          29.1440    13.0610    20.7850 ho         1 MOL       0.000000
     21 C17         31.0390    10.2600    26.8020 c3         1 MOL       0.000000
     22 C18         29.6310     9.7640    27.0830 c3         1 MOL       0.000000
     23 H3          31.9760     7.2850    23.5880 hc         1 MOL       0.000000
     24 H4          31.9660     8.9700    23.1030 hc         1 MOL       0.000000
     25 H5          34.2900     7.5170    24.3220 hc         1 MOL       0.000000
     26 H6          34.2760     9.1980    23.8440 hc         1 MOL       0.000000
     27 H7          34.1260     7.9450    22.6360 hc         1 MOL       0.000000
     28 H8          30.4400     6.7860    26.2460 ha         1 MOL       0.000000
     29 H9          30.8870     5.3000    28.0950 ha         1 MOL       0.000000
     30 H10         34.7010     6.9760    28.5410 ha         1 MOL       0.000000
     31 H11         34.2540     8.4890    26.6870 ha         1 MOL       0.000000
     32 H12         33.0930    11.4500    23.9730 ha         1 MOL       0.000000
     33 H13         32.5500    12.8170    22.0320 ha         1 MOL       0.000000
     34 H14         28.5640    11.5270    22.2260 ha         1 MOL       0.000000
     35 H15         29.1010    10.1670    24.1490 ha         1 MOL       0.000000
     36 H16         31.0730    11.3270    26.8750 hc         1 MOL       0.000000
     37 H17         31.7320     9.8580    27.5110 hc         1 MOL       0.000000
     38 H18         28.9560    10.1790    26.3630 hc         1 MOL       0.000000
     39 H19         29.3350    10.0680    28.0650 hc         1 MOL       0.000000
     40 H20         29.6100     8.6960    27.0180 hc         1 MOL       0.000000
@<TRIPOS>BOND
     1     1     2 2   
     2     1     5 1   
     3     2    21 1   
     4     3     1 1   
     5     3    23 1   
     6     3    24 1   
     7     4     3 1   
     8     4    25 1   
     9     4    26 1   
    10     4    27 1   
    11     5     6 ar  
    12     5    10 ar  
    13     6     7 ar  
    14     6    28 1   
    15     7     8 ar  
    16     7    29 1   
    17     8    11 1   
    18     9     8 ar  
    19     9    30 1   
    20    10     9 ar  
    21    10    31 1   
    22    12    11 1   
    23    13     2 1   
    24    14    13 ar  
    25    14    32 1   
    26    15    14 ar  
    27    15    33 1   
    28    16    15 ar  
    29    16    17 ar  
    30    17    18 ar  
    31    17    34 1   
    32    18    13 ar  
    33    18    35 1   
    34    19    16 1   
    35    20    19 1   
    36    21    22 1   
    37    21    36 1   
    38    21    37 1   
    39    22    38 1   
    40    22    39 1   
    41    22    40 1   
@<TRIPOS>SUBSTRUCTURE
     1 MOL         1 TEMP              0 ****  ****    0 ROOT
