@<TRIPOS>MOLECULE
MOL
   40    41     1     0     0
SMALL
No Charge or Current Charge


@<TRIPOS>ATOM
      1 C1          31.7500     8.8790    26.1150 ce         1 MOL       0.000000
      2 C2          31.8120     8.8720    24.7950 cf         1 MOL       0.000000
      3 C3          31.0930    10.0420    26.8200 c3         1 MOL       0.000000
      4 C4          29.8480     9.5840    27.5470 c3         1 MOL       0.000000
      5 C5          32.3120     7.7650    26.9440 ca         1 MOL       0.000000
      6 C6          31.4410     6.8290    27.4790 ca         1 MOL       0.000000
      7 C7          31.9280     5.8080    28.2750 ca         1 MOL       0.000000
      8 C8          33.2800     5.7170    28.5340 ca         1 MOL       0.000000
      9 C9          34.1630     6.6600    28.0140 ca         1 MOL       0.000000
     10 C10         33.6780     7.6950    27.2150 ca         1 MOL       0.000000
     11 O1          33.7270     4.6970    29.3310 oh         1 MOL       0.000000
     12 H1          32.9590     4.3720    29.9360 ho         1 MOL       0.000000
     13 C11         31.2020    10.0250    24.0530 ca         1 MOL       0.000000
     14 C12         31.9730    11.0080    23.4330 ca         1 MOL       0.000000
     15 C13         31.3350    12.0530    22.7490 ca         1 MOL       0.000000
     16 C14         29.9400    12.1120    22.6920 ca         1 MOL       0.000000
     17 C15         29.1870    11.1300    23.3150 ca         1 MOL       0.000000
     18 C16         29.8170    10.0930    23.9920 ca         1 MOL       0.000000
     19 O2          29.2840    13.1330    22.0300 oh         1 MOL       0.000000
     20 H2          29.2580    13.9700    22.6290 ho         1 MOL       0.000000
     21 C17         32.4400     7.6970    24.0750 c3         1 MOL       0.000000
     22 C18         33.8170     8.1380    23.6120 c3         1 MOL       0.000000
     23 H3          30.8260    10.7860    26.0990 hc         1 MOL       0.000000
     24 H4          31.7800    10.4490    27.5320 hc         1 MOL       0.000000
     25 H5          29.1540     9.1750    26.8430 hc         1 MOL       0.000000
     26 H6          29.4000    10.4170    28.0470 hc         1 MOL       0.000000
     27 H7          30.1100     8.8360    28.2660 hc         1 MOL       0.000000
     28 H8          30.4300     6.8940    27.2840 ha         1 MOL       0.000000
     29 H9          31.2790     5.1130    28.6760 ha         1 MOL       0.000000
     30 H10         35.1720     6.5930    28.2190 ha         1 MOL       0.000000
     31 H11         34.3230     8.4020    26.8280 ha         1 MOL       0.000000
     32 H12         33.0030    10.9670    23.4770 ha         1 MOL       0.000000
     33 H13         31.8990    12.7820    22.2850 ha         1 MOL       0.000000
     34 H14         28.1570    11.1690    23.2760 ha         1 MOL       0.000000
     35 H15         29.2490     9.3660    24.4540 ha         1 MOL       0.000000
     36 H16         32.5260     6.8630    24.7400 hc         1 MOL       0.000000
     37 H17         31.8380     7.3960    23.2430 hc         1 MOL       0.000000
     38 H18         34.4000     8.4340    24.4590 hc         1 MOL       0.000000
     39 H19         33.7190     8.9640    22.9390 hc         1 MOL       0.000000
     40 H20         34.3020     7.3260    23.1120 hc         1 MOL       0.000000
@<TRIPOS>BOND
     1     1     3 1   
     2     1     5 1   
     3     2     1 2   
     4     3     4 1   
     5     3    23 1   
     6     3    24 1   
     7     4    25 1   
     8     4    26 1   
     9     4    27 1   
    10     5    10 ar  
    11     5     6 ar  
    12     6     7 ar  
    13     6    28 1   
    14     7     8 ar  
    15     7    29 1   
    16     8    11 1   
    17     9     8 ar  
    18     9    30 1   
    19    10     9 ar  
    20    10    31 1   
    21    11    12 1   
    22    13     2 1   
    23    14    13 ar  
    24    14    32 1   
    25    15    14 ar  
    26    15    33 1   
    27    16    15 ar  
    28    16    17 ar  
    29    17    18 ar  
    30    17    34 1   
    31    18    13 ar  
    32    18    35 1   
    33    19    20 1   
    34    19    16 1   
    35    21     2 1   
    36    21    36 1   
    37    21    37 1   
    38    22    21 1   
    39    22    38 1   
    40    22    39 1   
    41    22    40 1   
@<TRIPOS>SUBSTRUCTURE
     1 MOL         1 TEMP              0 ****  ****    0 ROOT
