MODEL 1
REMARK VINA RESULT:      -5.1      0.000      0.000
REMARK  8 active torsions:
REMARK  status: ('A' for Active; 'I' for Inactive)
REMARK    1  A    between atoms: O_1  and  C1_4 
REMARK    2  A    between atoms: C_3  and  C1_4 
REMARK    3  A    between atoms: C_3  and  C4_7 
REMARK    4  A    between atoms: C4_7  and  O1_8 
REMARK    5  A    between atoms: C4_7  and  C5_10 
REMARK    6  A    between atoms: N_12  and  C6_14 
REMARK    7  A    between atoms: C6_14  and  C7_15 
REMARK    8  A    between atoms: C7_15  and  C8_16 
ROOT
ATOM      1  C4  UNL d          24.320  16.725  62.551  0.00  0.00     0.205 C 
ENDROOT
BRANCH   1   2
ATOM      2  C   UNL d          25.121  15.333  62.036  0.00  0.00     0.007 C 
ATOM      3  C2  UNL d          24.097  14.123  62.149  0.00  0.00     0.020 C 
ATOM      4  C3  UNL d          26.386  15.070  62.811  0.00  0.00     0.020 C 
BRANCH   2   5
ATOM      5  C1  UNL d          25.585  15.431  60.521  0.00  0.00     0.175 C 
BRANCH   5   6
ATOM      6  O   UNL d          25.303  16.700  59.935  0.00  0.00    -0.400 OA
ATOM      7  H   UNL d          24.284  16.817  59.844  0.00  0.00     0.209 HD
ENDBRANCH   5   6
ENDBRANCH   2   5
ENDBRANCH   1   2
BRANCH   1   8
ATOM      8  O1  UNL d          23.407  16.372  63.638  0.00  0.00    -0.386 OA
ATOM      9  H10 UNL d          22.455  16.256  63.263  0.00  0.00     0.210 HD
ENDBRANCH   1   8
BRANCH   1  10
ATOM     10  C5  UNL d          25.301  17.840  63.143  0.00  0.00     0.181 C 
ATOM     11  O2  UNL d          25.470  17.908  64.467  0.00  0.00    -0.174 OA
ATOM     12  N   UNL d          25.946  18.652  62.322  0.00  0.00    -0.369 N 
ATOM     13  H11 UNL d          25.734  18.597  61.315  0.00  0.00     0.161 HD
BRANCH  12  14
ATOM     14  C6  UNL d          26.966  19.642  62.777  0.00  0.00     0.132 C 
BRANCH  14  15
ATOM     15  C7  UNL d          28.264  19.586  61.917  0.00  0.00     0.132 C 
BRANCH  15  16
ATOM     16  C8  UNL d          28.263  18.399  60.928  0.00  0.00     0.174 C 
ATOM     17  O3  UNL d          27.775  18.495  59.694  0.00  0.00    -0.648 OA
ATOM     18  O4  UNL d          28.780  17.284  61.420  0.00  0.00    -0.648 OA
ENDBRANCH  15  16
ENDBRANCH  14  15
ENDBRANCH  12  14
ENDBRANCH   1  10
TORSDOF 8
ENDMDL
MODEL 2
REMARK VINA RESULT:      -5.0      1.984      2.584
REMARK  8 active torsions:
REMARK  status: ('A' for Active; 'I' for Inactive)
REMARK    1  A    between atoms: O_1  and  C1_4 
REMARK    2  A    between atoms: C_3  and  C1_4 
REMARK    3  A    between atoms: C_3  and  C4_7 
REMARK    4  A    between atoms: C4_7  and  O1_8 
REMARK    5  A    between atoms: C4_7  and  C5_10 
REMARK    6  A    between atoms: N_12  and  C6_14 
REMARK    7  A    between atoms: C6_14  and  C7_15 
REMARK    8  A    between atoms: C7_15  and  C8_16 
ROOT
ATOM      1  C4  UNL d          25.592  16.093  60.822  0.00  0.00     0.205 C 
ENDROOT
BRANCH   1   2
ATOM      2  C   UNL d          26.622  14.781  61.075  0.00  0.00     0.007 C 
ATOM      3  C2  UNL d          28.051  15.363  61.454  0.00  0.00     0.020 C 
ATOM      4  C3  UNL d          26.690  13.859  59.886  0.00  0.00     0.020 C 
BRANCH   2   5
ATOM      5  C1  UNL d          26.142  13.862  62.277  0.00  0.00     0.175 C 
BRANCH   5   6
ATOM      6  O   UNL d          24.994  13.080  61.954  0.00  0.00    -0.400 OA
ATOM      7  H   UNL d          24.288  13.183  62.697  0.00  0.00     0.209 HD
ENDBRANCH   5   6
ENDBRANCH   2   5
ENDBRANCH   1   2
BRANCH   1   8
ATOM      8  O1  UNL d          24.209  15.616  60.820  0.00  0.00    -0.386 OA
ATOM      9  H10 UNL d          23.975  15.243  59.889  0.00  0.00     0.210 HD
ENDBRANCH   1   8
BRANCH   1  10
ATOM     10  C5  UNL d          25.676  17.199  61.973  0.00  0.00     0.181 C 
ATOM     11  O2  UNL d          25.087  16.949  63.146  0.00  0.00    -0.174 OA
ATOM     12  N   UNL d          26.345  18.320  61.760  0.00  0.00    -0.369 N 
ATOM     13  H11 UNL d          26.728  18.488  60.819  0.00  0.00     0.161 HD
BRANCH  12  14
ATOM     14  C6  UNL d          26.573  19.354  62.812  0.00  0.00     0.132 C 
BRANCH  14  15
ATOM     15  C7  UNL d          28.061  19.815  62.870  0.00  0.00     0.132 C 
BRANCH  15  16
ATOM     16  C8  UNL d          28.506  20.527  61.573  0.00  0.00     0.174 C 
ATOM     17  O3  UNL d          27.710  20.654  60.515  0.00  0.00    -0.648 OA
ATOM     18  O4  UNL d          29.747  20.989  61.609  0.00  0.00    -0.648 OA
ENDBRANCH  15  16
ENDBRANCH  14  15
ENDBRANCH  12  14
ENDBRANCH   1  10
TORSDOF 8
ENDMDL
MODEL 3
REMARK VINA RESULT:      -5.0      1.764      3.309
REMARK  8 active torsions:
REMARK  status: ('A' for Active; 'I' for Inactive)
REMARK    1  A    between atoms: O_1  and  C1_4 
REMARK    2  A    between atoms: C_3  and  C1_4 
REMARK    3  A    between atoms: C_3  and  C4_7 
REMARK    4  A    between atoms: C4_7  and  O1_8 
REMARK    5  A    between atoms: C4_7  and  C5_10 
REMARK    6  A    between atoms: N_12  and  C6_14 
REMARK    7  A    between atoms: C6_14  and  C7_15 
REMARK    8  A    between atoms: C7_15  and  C8_16 
ROOT
ATOM      1  C4  UNL d          26.786  15.350  60.447  0.00  0.00     0.205 C 
ENDROOT
BRANCH   1   2
ATOM      2  C   UNL d          25.631  15.380  61.676  0.00  0.00     0.007 C 
ATOM      3  C2  UNL d          26.343  15.921  62.989  0.00  0.00     0.020 C 
ATOM      4  C3  UNL d          24.990  14.035  61.902  0.00  0.00     0.020 C 
BRANCH   2   5
ATOM      5  C1  UNL d          24.424  16.356  61.345  0.00  0.00     0.175 C 
BRANCH   5   6
ATOM      6  O   UNL d          24.627  17.678  61.839  0.00  0.00    -0.400 OA
ATOM      7  H   UNL d          25.607  17.956  61.686  0.00  0.00     0.209 HD
ENDBRANCH   5   6
ENDBRANCH   2   5
ENDBRANCH   1   2
BRANCH   1   8
ATOM      8  O1  UNL d          26.297  14.508  59.356  0.00  0.00    -0.386 OA
ATOM      9  H10 UNL d          25.411  14.892  58.997  0.00  0.00     0.210 HD
ENDBRANCH   1   8
BRANCH   1  10
ATOM     10  C5  UNL d          27.068  16.787  59.805  0.00  0.00     0.181 C 
ATOM     11  O2  UNL d          26.671  17.016  58.550  0.00  0.00    -0.174 OA
ATOM     12  N   UNL d          27.656  17.726  60.527  0.00  0.00    -0.369 N 
ATOM     13  H11 UNL d          27.996  17.478  61.467  0.00  0.00     0.161 HD
BRANCH  12  14
ATOM     14  C6  UNL d          27.854  19.127  60.050  0.00  0.00     0.132 C 
BRANCH  14  15
ATOM     15  C7  UNL d          27.928  20.144  61.228  0.00  0.00     0.132 C 
BRANCH  15  16
ATOM     16  C8  UNL d          27.655  19.479  62.596  0.00  0.00     0.174 C 
ATOM     17  O3  UNL d          28.618  18.935  63.334  0.00  0.00    -0.648 OA
ATOM     18  O4  UNL d          26.381  19.494  62.960  0.00  0.00    -0.648 OA
ENDBRANCH  15  16
ENDBRANCH  14  15
ENDBRANCH  12  14
ENDBRANCH   1  10
TORSDOF 8
ENDMDL
