@<TRIPOS>MOLECULE
LIGAND
   55    57     1     0     0
SMALL
No Charge or Current Charge


@<TRIPOS>ATOM
      1 C           -0.0220    32.0840     0.4630 ca         1 UNL       0.421000
      2 C1          -1.0240    32.5690     2.5090 ca         1 UNL       0.322400
      3 C2          -1.5800    31.2770     2.5290 ca         1 UNL       0.077400
      4 C3          -2.2630    30.7710     3.8370 c3         1 UNL      -0.012800
      5 H           -2.8780    31.5630     4.2980 hc         1 UNL       0.032000
      6 H1          -1.4770    30.5030     4.5670 hc         1 UNL       0.032000
      7 C4          -3.1500    29.5290     3.5680 c3         1 UNL      -0.020600
      8 H2          -4.0470    29.8580     3.0120 hc         1 UNL       0.031900
      9 C5          -2.3810    28.4980     2.7070 c3         1 UNL      -0.041800
     10 H3          -3.0200    27.6220     2.4940 hc         1 UNL       0.027300
     11 H4          -1.5450    28.1050     3.3160 hc         1 UNL       0.027300
     12 C6          -1.7830    29.0250     1.3530 c3         1 UNL       0.002600
     13 H5          -2.5690    28.9580     0.5790 hc         1 UNL       0.034100
     14 H6          -0.9810    28.3350     1.0370 hc         1 UNL       0.034100
     15 C7          -1.3110    30.4230     1.4480 ca         1 UNL       0.088400
     16 C8          -3.6230    28.9830     4.9610 c3         1 UNL       0.015000
     17 H7          -4.0850    29.8140     5.5240 h1         1 UNL       0.046600
     18 H8          -2.7690    28.6700     5.5710 h1         1 UNL       0.046600
     19 C9          -4.2430    26.5590     4.7800 ca         1 UNL       0.036700
     20 C10         -5.1380    25.6470     4.2580 ca         1 UNL       0.005000
     21 H9          -6.1010    26.0050     3.8950 ha         1 UNL       0.067400
     22 C11         -4.8550    24.2840     4.1780 ca         1 UNL       0.166900
     23 C12         -7.0110    23.8840     3.0290 c3         1 UNL       0.079000
     24 H10         -7.5240    22.9900     2.6480 h1         1 UNL       0.066000
     25 H11         -7.6750    24.3940     3.7430 h1         1 UNL       0.066000
     26 H12         -6.7940    24.5560     2.1850 h1         1 UNL       0.066000
     27 C13         -3.6600    23.8460     4.6560 ca         1 UNL       0.203600
     28 C14         -2.5570    22.0920     3.4830 c3         1 UNL       0.079100
     29 H13         -2.1810    21.0820     3.6920 h1         1 UNL       0.066000
     30 H14         -3.3020    22.0430     2.6750 h1         1 UNL       0.066000
     31 H15         -1.7230    22.7310     3.1580 h1         1 UNL       0.066000
     32 C15         -2.7120    24.7340     5.1800 ca         1 UNL       0.166900
     33 C16         -0.4570    25.1330     6.0060 c3         1 UNL       0.079000
     34 H16          0.4110    24.5060     6.2460 h1         1 UNL       0.066000
     35 H17         -0.1990    25.8040     5.1750 h1         1 UNL       0.066000
     36 H18         -0.7320    25.7170     6.8960 h1         1 UNL       0.066000
     37 C17         -3.0110    26.0890     5.2580 ca         1 UNL       0.005000
     38 H19         -2.2910    26.7840     5.6890 ha         1 UNL       0.067400
     39 N           -0.4660    30.8230     0.4170 na         1 UNL      -0.240700
     40 H20         -0.1960    30.1810    -0.3420 hn         1 UNL       0.265100
     41 N1           0.8430    32.3740    -0.5420 nh         1 UNL      -0.241600
     42 H21          1.2530    33.3160    -0.6120 hn         1 UNL       0.242100
     43 H22          1.0890    31.6520    -1.2340 hn         1 UNL       0.242100
     44 N2          -0.2370    32.9710     1.4960 nb         1 UNL       0.023300
     45 N3          -1.2830    33.4620     3.4970 nh         1 UNL      -0.246100
     46 H23         -0.8660    34.4030     3.4630 hn         1 UNL       0.288400
     47 H24         -1.8970    33.1990     4.2810 hn         1 UNL       0.288400
     48 N4          -4.6260    27.9200     4.8320 nh         1 UNL      -0.332500
     49 O           -5.8220    23.4160     3.6560 os         1 UNL      -0.491300
     50 O1          -3.1430    22.5770     4.6930 os         1 UNL      -0.488500
     51 O2          -1.5180    24.2160     5.6340 os         1 UNL      -0.491300
     52 C18         -6.0510    28.2900     4.7350 c3         1 UNL       0.000700
     53 H25         -6.1890    29.3270     5.0710 h1         1 UNL       0.042800
     54 H26         -6.4270    28.2180     3.7010 h1         1 UNL       0.042800
     55 H27         -6.6620    27.6490     5.3870 h1         1 UNL       0.042800
@<TRIPOS>BOND
     1     1    39 1   
     2     1    41 1   
     3     1    44 ar  
     4     2     3 ar  
     5     2    44 ar  
     6     2    45 1   
     7     3     4 1   
     8     3    15 ar  
     9     4     7 1   
    10     4     5 1   
    11     4     6 1   
    12     7     9 1   
    13     7    16 1   
    14     7     8 1   
    15     9    12 1   
    16     9    10 1   
    17     9    11 1   
    18    12    15 1   
    19    12    13 1   
    20    12    14 1   
    21    15    39 2   
    22    16    48 1   
    23    16    17 1   
    24    16    18 1   
    25    19    20 ar  
    26    19    37 ar  
    27    19    48 1   
    28    20    22 ar  
    29    20    21 1   
    30    22    27 ar  
    31    22    49 1   
    32    23    49 1   
    33    23    24 1   
    34    23    25 1   
    35    23    26 1   
    36    27    32 ar  
    37    27    50 1   
    38    28    50 1   
    39    28    29 1   
    40    28    30 1   
    41    28    31 1   
    42    32    37 ar  
    43    32    51 1   
    44    33    51 1   
    45    33    34 1   
    46    33    35 1   
    47    33    36 1   
    48    37    38 1   
    49    39    40 1   
    50    41    42 1   
    51    41    43 1   
    52    45    46 1   
    53    45    47 1   
    54    48    52 1   
    55    52    53 1   
    56    52    54 1   
    57    52    55 1   
@<TRIPOS>SUBSTRUCTURE
     1 UNL         1 TEMP              0 ****  ****    0 ROOT
