MODEL 1
REMARK VINA RESULT:      -6.4      0.000      0.000
REMARK  2 active torsions:
REMARK  status: ('A' for Active; 'I' for Inactive)
REMARK    1  A    between atoms: C9_10  and  C12_13 
REMARK    2  A    between atoms: C12_13  and  C14_15 
ROOT
ATOM      1  C   UNL d          30.867  -5.710  62.529  0.00  0.00     0.001 A 
ATOM      2  C1  UNL d          30.305  -6.803  63.306  0.00  0.00     0.012 A 
ATOM      3  C2  UNL d          30.611  -8.208  62.985  0.00  0.00    -0.023 A 
ATOM      4  C3  UNL d          31.484  -8.444  61.802  0.00  0.00     0.012 A 
ATOM      5  C4  UNL d          32.028  -7.363  61.044  0.00  0.00     0.001 A 
ATOM      6  C5  UNL d          31.697  -6.006  61.392  0.00  0.00     0.000 A 
ATOM      7  C6  UNL d          30.106  -9.303  63.767  0.00  0.00     0.013 C 
ATOM      8  C7  UNL d          30.023  -9.178  65.255  0.00  0.00     0.016 C 
ATOM      9  C8  UNL d          29.540 -10.258  66.067  0.00  0.00     0.009 C 
ATOM     10  C9  UNL d          28.988 -11.460  65.460  0.00  0.00    -0.041 C 
ATOM     11  C10 UNL d          29.055 -11.606  64.033  0.00  0.00     0.051 C 
ATOM     12  C11 UNL d          29.511 -10.538  63.185  0.00  0.00     0.128 C 
ATOM     13  F   UNL d          29.495 -10.808  61.821  0.00  0.00    -0.205 F 
ENDROOT
BRANCH  10  14
ATOM     14  C12 UNL d          28.437 -12.668  66.307  0.00  0.00     0.115 C 
ATOM     15  C13 UNL d          27.542 -12.206  67.512  0.00  0.00     0.026 C 
BRANCH  14  16
ATOM     16  C14 UNL d          29.645 -13.571  66.811  0.00  0.00     0.181 C 
ATOM     17  O   UNL d          30.813 -13.233  66.596  0.00  0.00    -0.647 OA
ATOM     18  O1  UNL d          29.391 -14.634  67.420  0.00  0.00    -0.647 OA
ENDBRANCH  14  16
ENDBRANCH  10  14
TORSDOF 2
ENDMDL
MODEL 2
REMARK VINA RESULT:      -6.0      3.721      7.150
REMARK  2 active torsions:
REMARK  status: ('A' for Active; 'I' for Inactive)
REMARK    1  A    between atoms: C9_10  and  C12_13 
REMARK    2  A    between atoms: C12_13  and  C14_15 
ROOT
ATOM      1  C   UNL d          29.022 -12.923  67.194  0.00  0.00     0.001 A 
ATOM      2  C1  UNL d          29.580 -11.895  66.332  0.00  0.00     0.012 A 
ATOM      3  C2  UNL d          30.993 -11.922  65.920  0.00  0.00    -0.023 A 
ATOM      4  C3  UNL d          31.823 -13.029  66.470  0.00  0.00     0.012 A 
ATOM      5  C4  UNL d          31.268 -14.033  67.320  0.00  0.00     0.001 A 
ATOM      6  C5  UNL d          29.881 -13.962  67.699  0.00  0.00     0.000 A 
ATOM      7  C6  UNL d          31.554 -10.943  65.030  0.00  0.00     0.013 C 
ATOM      8  C7  UNL d          30.749 -10.439  63.875  0.00  0.00     0.016 C 
ATOM      9  C8  UNL d          31.285  -9.475  62.958  0.00  0.00     0.009 C 
ATOM     10  C9  UNL d          32.580  -8.855  63.197  0.00  0.00    -0.041 C 
ATOM     11  C10 UNL d          33.374  -9.320  64.300  0.00  0.00     0.051 C 
ATOM     12  C11 UNL d          32.863 -10.268  65.253  0.00  0.00     0.128 C 
ATOM     13  F   UNL d          33.731 -10.606  66.285  0.00  0.00    -0.205 F 
ENDROOT
BRANCH  10  14
ATOM     14  C12 UNL d          33.206  -7.785  62.226  0.00  0.00     0.115 C 
ATOM     15  C13 UNL d          34.736  -7.547  62.490  0.00  0.00     0.026 C 
BRANCH  14  16
ATOM     16  C14 UNL d          32.394  -6.422  62.327  0.00  0.00     0.181 C 
ATOM     17  O   UNL d          31.734  -6.012  61.367  0.00  0.00    -0.647 OA
ATOM     18  O1  UNL d          32.443  -5.767  63.392  0.00  0.00    -0.647 OA
ENDBRANCH  14  16
ENDBRANCH  10  14
TORSDOF 2
ENDMDL
MODEL 3
REMARK VINA RESULT:      -6.0      3.413      6.506
REMARK  2 active torsions:
REMARK  status: ('A' for Active; 'I' for Inactive)
REMARK    1  A    between atoms: C9_10  and  C12_13 
REMARK    2  A    between atoms: C12_13  and  C14_15 
ROOT
ATOM      1  C   UNL d          26.837 -10.440  67.875  0.00  0.00     0.001 A 
ATOM      2  C1  UNL d          27.878 -10.078  66.927  0.00  0.00     0.012 A 
ATOM      3  C2  UNL d          27.854  -8.789  66.215  0.00  0.00    -0.023 A 
ATOM      4  C3  UNL d          26.687  -7.905  66.484  0.00  0.00     0.012 A 
ATOM      5  C4  UNL d          25.667  -8.270  67.414  0.00  0.00     0.001 A 
ATOM      6  C5  UNL d          25.731  -9.543  68.084  0.00  0.00     0.000 A 
ATOM      7  C6  UNL d          28.897  -8.391  65.311  0.00  0.00     0.013 C 
ATOM      8  C7  UNL d          30.322  -8.713  65.630  0.00  0.00     0.016 C 
ATOM      9  C8  UNL d          31.389  -8.315  64.757  0.00  0.00     0.009 C 
ATOM     10  C9  UNL d          31.109  -7.703  63.466  0.00  0.00    -0.041 C 
ATOM     11  C10 UNL d          29.749  -7.384  63.134  0.00  0.00     0.051 C 
ATOM     12  C11 UNL d          28.652  -7.786  63.971  0.00  0.00     0.128 C 
ATOM     13  F   UNL d          27.388  -7.434  63.513  0.00  0.00    -0.205 F 
ENDROOT
BRANCH  10  14
ATOM     14  C12 UNL d          32.244  -7.258  62.470  0.00  0.00     0.115 C 
ATOM     15  C13 UNL d          31.757  -6.178  61.438  0.00  0.00     0.026 C 
BRANCH  14  16
ATOM     16  C14 UNL d          32.838  -8.530  61.722  0.00  0.00     0.181 C 
ATOM     17  O   UNL d          33.839  -9.105  62.161  0.00  0.00    -0.647 OA
ATOM     18  O1  UNL d          32.279  -8.931  60.677  0.00  0.00    -0.647 OA
ENDBRANCH  14  16
ENDBRANCH  10  14
TORSDOF 2
ENDMDL
