@<TRIPOS>MOLECULE
MOL
   35    36     1     0     0
SMALL
No Charge or Current Charge


@<TRIPOS>ATOM
      1 C1          31.8610     6.0720    13.0240 c3         1 MOL       0.000000
      2 N1          30.7470     6.4400    13.9130 na         1 MOL       0.000000
      3 C2          30.4490     7.6630    14.0740 cc         1 MOL       0.000000
      4 S1          29.1050     7.9620    15.1700 ss         1 MOL       0.000000
      5 C3          29.0740     6.1690    15.3220 cd         1 MOL       0.000000
      6 C4          30.0370     5.5820    14.5620 cc         1 MOL       0.000000
      7 C5          30.2470     4.0740    14.5000 c3         1 MOL       0.000000
      8 C6          28.0910     5.4590    16.2060 c3         1 MOL       0.000000
      9 C7          28.1010     6.2270    17.5520 c3         1 MOL       0.000000
     10 O1          26.7720     6.5690    17.8930 oh         1 MOL       0.000000
     11 H1          26.7400     7.5480    18.2140 ho         1 MOL       0.000000
     12 C8          32.2250     6.9050    11.8120 ca         1 MOL       0.000000
     13 C9          31.4820     6.7840    10.6200 ca         1 MOL       0.000000
     14 N2          31.8130     7.5540     9.4980 nb         1 MOL       0.000000
     15 C10         32.8910     8.4490     9.5390 ca         1 MOL       0.000000
     16 C11         33.2260     9.2650     8.3270 c3         1 MOL       0.000000
     17 N3          33.6470     8.5790    10.7250 nb         1 MOL       0.000000
     18 C12         33.3190     7.8070    11.8590 ca         1 MOL       0.000000
     19 N4          30.3960     5.9030    10.5560 nh         1 MOL       0.000000
     20 H2          29.9230     5.6040    11.4210 hn         1 MOL       0.000000
     21 H3          30.0700     5.5530     9.6440 hn         1 MOL       0.000000
     22 H4          32.7360     6.0370    13.6380 h1         1 MOL       0.000000
     23 H5          31.5050     5.1670    12.5780 h1         1 MOL       0.000000
     24 H6          30.1950     8.0720    13.1180 h5         1 MOL       0.000000
     25 H7          31.0590     3.8540    13.8390 hc         1 MOL       0.000000
     26 H8          29.3560     3.6040    14.1390 hc         1 MOL       0.000000
     27 H9          30.4740     3.7050    15.4780 hc         1 MOL       0.000000
     28 H10         28.3900     4.4430    16.3550 hc         1 MOL       0.000000
     29 H11         27.1130     5.4390    15.7710 hc         1 MOL       0.000000
     30 H12         28.6870     7.1170    17.4540 h1         1 MOL       0.000000
     31 H13         28.5250     5.6120    18.3180 h1         1 MOL       0.000000
     32 H14         32.5450     9.0260     7.5370 hc         1 MOL       0.000000
     33 H15         34.2260     9.0460     8.0150 hc         1 MOL       0.000000
     34 H16         33.1470    10.3050     8.5640 hc         1 MOL       0.000000
     35 H17         33.8750     7.8980    12.7230 h4         1 MOL       0.000000
@<TRIPOS>BOND
     1     1     2 1   
     2     1    22 1   
     3     1    23 1   
     4     2     3 2   
     5     2     6 1   
     6     3     4 1   
     7     3    24 1   
     8     4     5 1   
     9     5     8 1   
    10     6     5 2   
    11     7     6 1   
    12     7    25 1   
    13     7    26 1   
    14     7    27 1   
    15     8     9 1   
    16     8    28 1   
    17     8    29 1   
    18     9    10 1   
    19     9    30 1   
    20     9    31 1   
    21    10    11 1   
    22    12    18 ar  
    23    12     1 1   
    24    13    12 ar  
    25    14    15 ar  
    26    14    13 ar  
    27    15    17 ar  
    28    16    15 1   
    29    16    32 1   
    30    16    33 1   
    31    16    34 1   
    32    17    18 ar  
    33    18    35 1   
    34    19    13 1   
    35    19    20 1   
    36    21    19 1   
@<TRIPOS>SUBSTRUCTURE
     1 MOL         1 TEMP              0 ****  ****    0 ROOT
