@<TRIPOS>MOLECULE
LIGAND
   59    63     1     0     0
SMALL
No Charge or Current Charge


@<TRIPOS>ATOM
      1 O           -0.0370    31.0440    21.3050 o          1 UNL      -0.153000
      2 S           -0.6050    29.7780    21.5610 sy         1 UNL       0.058500
      3 O1          -0.4770    29.4350    22.9410 o          1 UNL      -0.153000
      4 N           -2.1000    29.8570    21.0210 n3         1 UNL      -0.189700
      5 H           -2.9060    29.7260    21.6490 hn         1 UNL       0.148000
      6 C           -2.2810    30.1240    19.5940 c3         1 UNL       0.020300
      7 H1          -2.0360    29.2060    19.0310 h1         1 UNL       0.044400
      8 H2          -1.5510    30.8900    19.2920 h1         1 UNL       0.044400
      9 C1          -3.6970    30.5820    19.2470 cx         1 UNL      -0.026800
     10 H3          -4.5100    29.9890    19.6760 hc         1 UNL       0.031400
     11 C2          -3.8610    31.1220    17.8270 cx         1 UNL      -0.048700
     12 H4          -4.7880    30.9290    17.2810 hc         1 UNL       0.026800
     13 H5          -2.9780    31.1380    17.1820 hc         1 UNL       0.026800
     14 C3          -3.9060    32.0700    19.0180 cx         1 UNL      -0.048700
     15 H6          -3.0600    32.7400    19.1960 hc         1 UNL       0.026800
     16 H7          -4.8650    32.5190    19.2900 hc         1 UNL       0.026800
     17 C4           0.2570    28.6170    20.7720 ca         1 UNL       0.107200
     18 C5           0.0050    27.2850    21.0760 ca         1 UNL      -0.031800
     19 H8          -0.7760    27.0350    21.7940 ha         1 UNL       0.063800
     20 C6           0.7400    26.2640    20.4720 ca         1 UNL      -0.016300
     21 H9           0.5470    25.2270    20.7490 ha         1 UNL       0.065500
     22 C7           1.2700    28.8870    19.8200 ca         1 UNL      -0.010500
     23 H10          1.4920    29.9260    19.5760 ha         1 UNL       0.065700
     24 C8           2.0060    27.8680    19.1720 ca         1 UNL       0.078700
     25 C9           1.7270    26.5530    19.5100 ca         1 UNL       0.141300
     26 O2           2.4440    25.5730    18.8760 os         1 UNL      -0.493300
     27 C10          2.2720    24.1640    19.0970 c3         1 UNL       0.078900
     28 H11          2.9900    23.6680    18.4310 h1         1 UNL       0.066000
     29 H12          2.4940    23.8880    20.1380 h1         1 UNL       0.066000
     30 H13          1.2540    23.8360    18.8430 h1         1 UNL       0.066000
     31 N1           2.9390    28.1000    18.1570 nh         1 UNL      -0.265700
     32 H14          3.7440    27.4610    18.0920 hn         1 UNL       0.156600
     33 C11          2.8590    29.1080    17.2510 cc         1 UNL       0.292400
     34 O3           1.8350    29.9810    17.2650 os         1 UNL      -0.424400
     35 C12          2.1640    30.9010    16.3250 cc         1 UNL       0.156900
     36 C13          3.3500    30.5130    15.7030 cd         1 UNL       0.075600
     37 H15          3.8300    31.0300    14.8720 h4         1 UNL       0.086900
     38 N2           3.8110    29.3800    16.3060 nd         1 UNL      -0.203100
     39 C14          1.2040    31.9670    16.0500 ca         1 UNL       0.019500
     40 C15          1.1520    32.5770    14.7970 ca         1 UNL      -0.043300
     41 H16          1.8610    32.2900    14.0200 ha         1 UNL       0.063100
     42 C16          0.1910    33.5550    14.5390 cp         1 UNL      -0.015800
     43 C17         -0.7690    33.8790    15.5200 ca         1 UNL      -0.053900
     44 H17         -1.5170    34.6490    15.3310 ha         1 UNL       0.062400
     45 C18         -0.7460    33.1990    16.7340 ca         1 UNL      -0.060500
     46 H18         -1.5040    33.4200    17.4860 ha         1 UNL       0.061800
     47 C19          0.2190    32.2500    17.0030 ca         1 UNL      -0.051000
     48 H19          0.2140    31.7220    17.9560 ha         1 UNL       0.062500
     49 C20          0.1890    34.2330    13.2050 cp         1 UNL      -0.001900
     50 C21          0.0020    35.6210    13.0930 ca         1 UNL       0.009300
     51 H20         -0.1710    36.2070    13.9960 h4         1 UNL       0.081300
     52 N3           0.0310    36.2500    11.8970 na         1 UNL      -0.366400
     53 H21         -0.0970    37.2710    11.8510 hn         1 UNL       0.164800
     54 C22          0.2250    35.5520    10.7720 ca         1 UNL       0.001600
     55 H22          0.2250    36.0650     9.8100 h4         1 UNL       0.080700
     56 C23          0.4280    34.1700    10.8220 ca         1 UNL      -0.045200
     57 H23          0.6170    33.6170     9.9020 ha         1 UNL       0.063200
     58 C24          0.3910    33.4920    12.0440 ca         1 UNL      -0.051300
     59 H24          0.5170    32.4100    12.0870 ha         1 UNL       0.062500
@<TRIPOS>BOND
     1     1     2 2   
     2     2     3 2   
     3     2     4 1   
     4     2    17 1   
     5     4     6 1   
     6     4     5 1   
     7     6     9 1   
     8     6     7 1   
     9     6     8 1   
    10     9    11 1   
    11     9    14 1   
    12     9    10 1   
    13    11    14 1   
    14    11    12 1   
    15    11    13 1   
    16    14    15 1   
    17    14    16 1   
    18    17    18 ar  
    19    17    22 ar  
    20    18    20 ar  
    21    18    19 1   
    22    20    25 ar  
    23    20    21 1   
    24    22    24 ar  
    25    22    23 1   
    26    24    25 ar  
    27    24    31 1   
    28    25    26 1   
    29    26    27 1   
    30    27    28 1   
    31    27    29 1   
    32    27    30 1   
    33    31    33 1   
    34    31    32 1   
    35    33    34 1   
    36    33    38 2   
    37    34    35 1   
    38    35    36 2   
    39    35    39 1   
    40    36    38 1   
    41    36    37 1   
    42    39    40 ar  
    43    39    47 ar  
    44    40    42 ar  
    45    40    41 1   
    46    42    43 ar  
    47    42    49 1   
    48    43    45 ar  
    49    43    44 1   
    50    45    47 ar  
    51    45    46 1   
    52    47    48 1   
    53    49    50 ar  
    54    49    58 ar  
    55    50    52 2   
    56    50    51 1   
    57    52    54 1   
    58    52    53 1   
    59    54    56 ar  
    60    54    55 1   
    61    56    58 ar  
    62    56    57 1   
    63    58    59 1   
@<TRIPOS>SUBSTRUCTURE
     1 UNL         1 TEMP              0 ****  ****    0 ROOT
