@<TRIPOS>MOLECULE
LIGAND
   31    32     1     0     0
SMALL
No Charge or Current Charge


@<TRIPOS>ATOM
      1 O5*         37.2690    31.6360    58.1120 oh         1 T1       -0.392400
      2 H5*         38.1910    32.0200    58.3650 ho         1 T1        0.209500
      3 C5*         37.1280    30.3560    58.6630 c3         1 T1        0.072900
      4 H5*1        37.4600    30.3230    59.7170 h1         1 T1        0.058400
      5 H5*2        37.7410    29.6310    58.0940 h1         1 T1        0.058400
      6 C4*         35.6320    29.8770    58.6180 c3         1 T1        0.110000
      7 H4*         35.7110    28.7890    58.7770 h1         1 T1        0.064600
      8 O4*         34.7340    30.2810    59.6640 os         1 T1       -0.348300
      9 C3*         34.7020    30.1190    57.3770 c3         1 T1        0.087600
     10 H3*         35.3070    30.3020    56.4720 h1         1 T1        0.062100
     11 O3*         33.8010    28.9990    56.9350 oh         1 T1       -0.389000
     12 H7          32.8720    29.3770    56.7010 ho         1 T1        0.209900
     13 C2*         34.1020    31.4820    57.8370 c3         1 T1        0.021400
     14 H2*1        33.2420    31.8000    57.2250 hc         1 T1        0.033500
     15 H2*2        34.8620    32.2650    57.6900 hc         1 T1        0.033500
     16 C1*         33.7730    31.2300    59.2840 c3         1 T1        0.142200
     17 H1*         32.7900    30.7440    59.3550 h2         1 T1        0.084000
     18 N1          33.9110    32.3630    60.2420 n          1 T1       -0.273700
     19 C2          32.8850    32.6610    61.0910 c          1 T1        0.331300
     20 O2          31.8350    31.9430    61.0400 o          1 T1       -0.246400
     21 N3          32.9480    33.6780    61.9640 n          1 T1       -0.274700
     22 H3          32.1510    33.8710    62.5880 hn         1 T1        0.173400
     23 C4          34.0410    34.4380    62.0240 c          1 T1        0.256800
     24 O4          34.0740    35.4320    62.8840 o          1 T1       -0.267400
     25 C5          35.1370    34.1690    61.1680 cc         1 T1        0.030200
     26 C5M         36.3980    35.0130    61.2080 c3         1 T1       -0.033200
     27 H5M1        37.1610    34.6680    60.4930 hc         1 T1        0.028000
     28 H5M2        36.1740    36.0660    60.9700 hc         1 T1        0.028000
     29 H5M3        36.8530    34.9930    62.2120 hc         1 T1        0.028000
     30 C6          35.0470    33.0990    60.2610 cd         1 T1        0.019900
     31 H6          35.8730    32.8670    59.5880 h4         1 T1        0.081600
@<TRIPOS>BOND
     1     1     3 1   
     2     1     2 1   
     3     3     6 1   
     4     3     4 1   
     5     3     5 1   
     6     6     8 1   
     7     6     9 1   
     8     6     7 1   
     9     8    16 1   
    10     9    11 1   
    11     9    13 1   
    12     9    10 1   
    13    11    12 1   
    14    13    16 1   
    15    13    14 1   
    16    13    15 1   
    17    16    18 1   
    18    16    17 1   
    19    18    19 1   
    20    18    30 1   
    21    19    20 2   
    22    19    21 1   
    23    21    23 1   
    24    21    22 1   
    25    23    24 2   
    26    23    25 1   
    27    25    26 1   
    28    25    30 2   
    29    26    27 1   
    30    26    28 1   
    31    26    29 1   
    32    30    31 1   
@<TRIPOS>SUBSTRUCTURE
     1 T1          1 TEMP              0 ****  ****    0 ROOT
