REMARK  9 active torsions:
REMARK  status: ('A' for Active; 'I' for Inactive)
REMARK    1  A    between atoms: C2_3  and  C3_4 
REMARK    2  A    between atoms: C3_4  and  C5_6 
REMARK    3  A    between atoms: C3_4  and  N_8 
REMARK       I    between atoms: C5_6  and  N1_10 
REMARK       I    between atoms: N_8  and  C13_19 
REMARK    4  A    between atoms: C8_14  and  C11_17 
REMARK    5  A    between atoms: C9_15  and  C10_16 
REMARK    6  A    between atoms: C9_15  and  N2_22 
REMARK    7  A    between atoms: C10_16  and  C11_17 
REMARK    8  A    between atoms: C10_16  and  C13_19 
REMARK    9  A    between atoms: C14_20  and  N2_22 
ROOT
ATOM      1  N   UNL d          66.450  31.428 118.131  0.00  0.00    -0.347 N 
ATOM      2  H10 UNL d          65.912  32.200 117.712  0.00  0.00     0.163 HD
ATOM      3  C13 UNL d          66.274  30.187 117.629  0.00  0.00     0.224 C 
ATOM      4  O3  UNL d          66.882  29.180 118.067  0.00  0.00    -0.273 OA
ENDROOT
BRANCH   1   5
ATOM      5  C3  UNL d          67.389  31.754 119.271  0.00  0.00     0.183 C 
BRANCH   5   6
ATOM      6  C2  UNL d          68.279  33.067 118.969  0.00  0.00    -0.022 C 
ATOM      7  C   UNL d          69.119  32.883 117.677  0.00  0.00     0.017 C 
ATOM      8  C1  UNL d          67.424  34.373 118.736  0.00  0.00     0.017 C 
ATOM      9  C4  UNL d          69.263  33.407 120.153  0.00  0.00     0.017 C 
ENDBRANCH   5   6
BRANCH   5  10
ATOM     10  C5  UNL d          66.491  31.847 120.586  0.00  0.00     0.240 C 
ATOM     11  O   UNL d          65.406  32.468 120.589  0.00  0.00    -0.271 OA
ATOM     12  N1  UNL d          67.003  31.196 121.667  0.00  0.00    -0.364 N 
ATOM     13  C6  UNL d          66.350  31.137 122.996  0.00  0.00     0.149 C 
ATOM     14  H11 UNL d          67.905  30.712 121.553  0.00  0.00     0.161 HD
ENDBRANCH   5  10
ENDBRANCH   1   5
BRANCH   3  15
ATOM     15  C10 UNL d          65.268  30.026 116.452  0.00  0.00     0.099 C 
BRANCH  15  16
ATOM     16  C9  UNL d          66.093  29.344 115.298  0.00  0.00     0.175 C 
BRANCH  16  17
ATOM     17  N2  UNL d          65.323  29.140 114.074  0.00  0.00    -0.199 N 
ATOM     18  O1  UNL d          65.083  30.177 113.358  0.00  0.00    -0.084 OA
BRANCH  17  19
ATOM     19  C14 UNL d          64.851  27.958 113.673  0.00  0.00     0.379 C 
ATOM     20  O2  UNL d          64.213  27.793 112.689  0.00  0.00    -0.281 OA
ENDBRANCH  17  19
ENDBRANCH  16  17
ENDBRANCH  15  16
BRANCH  15  21
ATOM     21  C11 UNL d          64.019  29.134 116.841  0.00  0.00     0.019 C 
BRANCH  21  22
ATOM     22  C8  UNL d          63.038  29.608 117.942  0.00  0.00    -0.022 C 
ATOM     23  C7  UNL d          62.295  30.885 117.488  0.00  0.00     0.009 C 
ATOM     24  C12 UNL d          61.951  28.564 118.122  0.00  0.00     0.009 C 
ENDBRANCH  21  22
ENDBRANCH  15  21
ENDBRANCH   3  15
TORSDOF 9
