@<TRIPOS>MOLECULE
LIGAND
   41    43     1     0     0
SMALL
No Charge or Current Charge


@<TRIPOS>ATOM
      1 O           11.7930    -2.1560     2.0530 o          1 UNL      -0.273400
      2 C           12.8370    -2.6800     2.3630 c          1 UNL       0.240400
      3 N           13.1500    -3.9790     2.7790 n          1 UNL      -0.268100
      4 CA          12.3530    -5.0080     3.3790 c3         1 UNL       0.144700
      5 HA          11.3690    -4.5980     3.6580 h1         1 UNL       0.063300
      6 C1          12.1060    -6.2040     2.4480 c          1 UNL       0.377500
      7 O1          12.4880    -6.2830     1.3210 o          1 UNL      -0.244200
      8 OXT         11.4180    -7.1670     3.1260 o          1 UNL      -0.244200
      9 C2          13.1470    -5.3640     4.6560 c3         1 UNL       0.071300
     10 C3          14.0770    -6.6000     4.5160 c3         1 UNL      -0.046000
     11 H           14.7870    -6.6660     5.3550 hc         1 UNL       0.024400
     12 H2          13.4780    -7.5260     4.5230 hc         1 UNL       0.024400
     13 H3          14.6590    -6.5900     3.5830 hc         1 UNL       0.024400
     14 C4          12.2410    -5.6410     5.8740 c3         1 UNL      -0.046000
     15 H4          12.8360    -5.8400     6.7770 hc         1 UNL       0.024400
     16 H5          11.5660    -4.7990     6.0930 hc         1 UNL       0.024400
     17 H6          11.6120    -6.5240     5.6740 hc         1 UNL       0.024400
     18 S           14.1410    -3.8690     5.0030 s4         1 UNL       0.053300
     19 C5          14.4550    -3.5580     3.2470 cy         1 UNL       0.129700
     20 H7          15.2530    -4.2250     2.8830 h2         1 UNL       0.066600
     21 C14         14.2560    -2.1940     2.5600 cy         1 UNL       0.130100
     22 H1          14.8060    -2.1200     1.6160 h1         1 UNL       0.062300
     23 N1          14.3180    -0.9860     3.3330 n          1 UNL      -0.301400
     24 H8          13.7540    -1.0200     4.1770 hn         1 UNL       0.149500
     25 C6          14.9890     0.1200     2.9310 c          1 UNL       0.218000
     26 O2          15.6650     0.3130     1.9230 o          1 UNL      -0.275400
     27 C7          14.9000     1.2820     3.9200 c3         1 UNL       0.049100
     28 H9          14.3840     1.0080     4.8510 hc         1 UNL       0.040700
     29 H10         14.3050     2.0690     3.4320 hc         1 UNL       0.040700
     30 C8          16.3010     1.7990     4.2240 ca         1 UNL      -0.038600
     31 C9          16.8270     2.9210     3.6010 ca         1 UNL      -0.058100
     32 H11         16.2470     3.4400     2.8110 ha         1 UNL       0.062000
     33 C10         18.0650     3.4310     4.0050 ca         1 UNL      -0.061500
     34 H12         18.4630     4.3520     3.5440 ha         1 UNL       0.061800
     35 C11         18.8150     2.7570     4.9800 ca         1 UNL      -0.061700
     36 H13         19.7980     3.1790     5.2790 ha         1 UNL       0.061800
     37 C12         18.3160     1.6020     5.5910 ca         1 UNL      -0.061500
     38 H14         18.8870     1.0480     6.3560 ha         1 UNL       0.061800
     39 C13         17.0490     1.1580     5.2140 ca         1 UNL      -0.058100
     40 H15         16.6250     0.2330     5.6680 ha         1 UNL       0.062000
     41 O3          13.2820    -2.7090     5.3380 o          1 UNL      -0.254700
@<TRIPOS>BOND
     1     1     2 2   
     2     2     3 1   
     3     2    21 1   
     4     3     4 1   
     5     3    19 1   
     6     4     6 1   
     7     4     9 1   
     8     4     5 1   
     9     6     7 1   
    10     6     8 1   
    11     9    10 1   
    12     9    14 1   
    13     9    18 1   
    14    10    11 1   
    15    10    12 1   
    16    10    13 1   
    17    14    15 1   
    18    14    16 1   
    19    14    17 1   
    20    18    19 1   
    21    18    41 2   
    22    19    21 1   
    23    19    20 1   
    24    21    23 1   
    25    21    22 1   
    26    23    25 1   
    27    23    24 1   
    28    25    26 2   
    29    25    27 1   
    30    27    30 1   
    31    27    28 1   
    32    27    29 1   
    33    30    31 ar  
    34    30    39 ar  
    35    31    33 ar  
    36    31    32 1   
    37    33    35 ar  
    38    33    34 1   
    39    35    37 ar  
    40    35    36 1   
    41    37    39 ar  
    42    37    38 1   
    43    39    40 1   
@<TRIPOS>SUBSTRUCTURE
     1 UNL         1 TEMP              0 ****  ****    0 ROOT
