REMARK  1 active torsions:
REMARK  status: ('A' for Active; 'I' for Inactive)
REMARK    1  A    between atoms: C11_15  and  N1_16 
ROOT
ATOM      1  C   UNL d           0.726  68.848  60.595  0.00  0.00     0.245 A 
ATOM      2  O   UNL d           0.265  69.331  59.526  0.00  0.00    -0.268 OA
ATOM      3  N   UNL d           2.007  68.291  60.614  0.00  0.00    -0.327 N 
ATOM      4  H   UNL d           2.541  68.295  59.733  0.00  0.00     0.169 HD
ATOM      5  C1  UNL d           0.003  68.825  61.859  0.00  0.00     0.075 A 
ATOM      6  C2  UNL d           0.576  68.272  62.986  0.00  0.00     0.017 A 
ATOM      7  C3  UNL d           1.908  67.694  62.988  0.00  0.00     0.005 A 
ATOM      8  C4  UNL d           2.624  67.723  61.749  0.00  0.00     0.022 A 
ATOM      9  C5  UNL d           4.017  67.169  61.560  0.00  0.00     0.070 C 
ATOM     10  C6  UNL d           4.657  66.598  62.902  0.00  0.00     0.045 C 
ATOM     11  C7  UNL d           5.376  67.694  63.716  0.00  0.00    -0.015 C 
ATOM     12  C8  UNL d           4.352  63.553  63.742  0.00  0.00     0.036 C 
ATOM     13  C9  UNL d           3.463  64.691  64.143  0.00  0.00    -0.025 C 
ATOM     14  C10 UNL d           3.563  65.967  63.794  0.00  0.00    -0.036 C 
ATOM     15  C11 UNL d           2.569  67.047  64.283  0.00  0.00     0.179 C 
ATOM     16  C12 UNL d           3.321  68.130  65.111  0.00  0.00     0.082 C 
ATOM     17  C13 UNL d           4.765  68.387  64.718  0.00  0.00    -0.084 C 
ATOM     18  C14 UNL d           5.453  69.459  65.536  0.00  0.00     0.043 C 
ENDROOT
BRANCH  15  19
ATOM     19  N1  UNL d           1.508  66.456  65.146  0.00  0.00    -0.062 N 
ATOM     20  H11 UNL d           1.899  65.977  65.947  0.00  0.00     0.276 HD
ATOM     21  H12 UNL d           0.871  67.159  65.496  0.00  0.00     0.276 HD
ATOM     22  H13 UNL d           0.941  65.781  64.647  0.00  0.00     0.276 HD
ENDBRANCH  15  19
TORSDOF 1
