@<TRIPOS>MOLECULE
LIGAND
   37    39     1     0     0
SMALL
No Charge or Current Charge


@<TRIPOS>ATOM
      1 C            0.7260    68.8480    60.5950 c          1 UNL       0.248900
      2 O            0.2650    69.3310    59.5260 o          1 UNL      -0.267900
      3 N            2.0070    68.2910    60.6140 n          1 UNL      -0.326000
      4 H            2.5410    68.2950    59.7330 hn         1 UNL       0.168600
      5 C1           0.0030    68.8250    61.8590 cc         1 UNL       0.003000
      6 H1          -1.0000    69.2480    61.9150 ha         1 UNL       0.067200
      7 C2           0.5760    68.2720    62.9860 cd         1 UNL      -0.052900
      8 H2           0.0040    68.2690    63.9140 ha         1 UNL       0.062200
      9 C3           1.9080    67.6940    62.9880 cd         1 UNL      -0.035100
     10 C4           2.6240    67.7230    61.7490 cc         1 UNL       0.022000
     11 C5           4.0170    67.1690    61.5600 c3         1 UNL      -0.002300
     12 H3           4.6750    67.9380    61.1200 hc         1 UNL       0.033600
     13 H4           3.9620    66.3500    60.8210 hc         1 UNL       0.033600
     14 C6           4.6570    66.5980    62.9020 c3         1 UNL       0.002700
     15 H5           5.4200    65.8560    62.6240 hc         1 UNL       0.039100
     16 C7           5.3760    67.6940    63.7160 c2         1 UNL      -0.077600
     17 H6           6.4150    67.9230    63.4800 ha         1 UNL       0.057800
     18 C8           4.3520    63.5530    63.7420 c3         1 UNL      -0.046600
     19 H7           3.7580    62.7310    63.3070 hc         1 UNL       0.027200
     20 H8           5.1110    63.8340    63.0010 hc         1 UNL       0.027200
     21 H9           4.8810    63.1380    64.6180 hc         1 UNL       0.027200
     22 C9           3.4630    64.6910    64.1430 c2         1 UNL      -0.088300
     23 H10          2.6320    64.4390    64.8020 ha         1 UNL       0.056900
     24 C10          3.5630    65.9670    63.7940 c2         1 UNL      -0.073400
     25 C11          2.5690    67.0470    64.2830 c3         1 UNL      -0.017300
     26 N1           1.5080    66.4560    65.1460 n4         1 UNL       0.387200
     27 H11          1.8990    65.9770    65.9470 hn         1 UNL      -0.088300
     28 H12          0.8710    67.1590    65.4960 hn         1 UNL      -0.088300
     29 H13          0.9410    65.7810    64.6470 hn         1 UNL      -0.088300
     30 C12          3.3210    68.1300    65.1110 c3         1 UNL      -0.034500
     31 H14          3.3630    67.8280    66.1780 hc         1 UNL       0.030200
     32 H15          2.7760    69.0930    65.1110 hc         1 UNL       0.030200
     33 C13          4.7650    68.3870    64.7180 c2         1 UNL      -0.076700
     34 C14          5.4530    69.4590    65.5360 c3         1 UNL      -0.043800
     35 H16          6.4940    69.6050    65.2130 hc         1 UNL       0.027400
     36 H17          4.9290    70.4250    65.4380 hc         1 UNL       0.027400
     37 H18          5.4640    69.1930    66.6060 hc         1 UNL       0.027400
@<TRIPOS>BOND
     1     1     2 2   
     2     1     3 1   
     3     1     5 1   
     4     3    10 1   
     5     3     4 1   
     6     5     7 2   
     7     5     6 1   
     8     7     9 1   
     9     7     8 1   
    10     9    10 2   
    11     9    25 1   
    12    10    11 1   
    13    11    14 1   
    14    11    12 1   
    15    11    13 1   
    16    14    16 1   
    17    14    24 1   
    18    14    15 1   
    19    16    33 2   
    20    16    17 1   
    21    18    22 1   
    22    18    19 1   
    23    18    20 1   
    24    18    21 1   
    25    22    24 2   
    26    22    23 1   
    27    24    25 1   
    28    25    26 1   
    29    25    30 1   
    30    26    27 1   
    31    26    28 1   
    32    26    29 1   
    33    30    33 1   
    34    30    31 1   
    35    30    32 1   
    36    33    34 1   
    37    34    35 1   
    38    34    36 1   
    39    34    37 1   
@<TRIPOS>SUBSTRUCTURE
     1 UNL         1 TEMP              0 ****  ****    0 ROOT
