REMARK  2 active torsions:
REMARK  status: ('A' for Active; 'I' for Inactive)
REMARK    1  A    between atoms: C2_3  and  S_5 
REMARK    2  A    between atoms: S_5  and  N_10 
ROOT
ATOM      1  C   UNL d          28.348  46.037  16.783  0.00  0.00     0.009 A 
ATOM      2  C1  UNL d          27.899  45.532  15.570  0.00  0.00     0.026 A 
ATOM      3  C2  UNL d          27.822  44.147  15.385  0.00  0.00     0.080 A 
ATOM      4  C3  UNL d          28.193  43.286  16.410  0.00  0.00     0.034 A 
ATOM      5  C4  UNL d          28.642  43.790  17.616  0.00  0.00    -0.025 A 
ATOM      6  C5  UNL d          28.720  45.174  17.807  0.00  0.00    -0.049 A 
ATOM      7  C6  UNL d          28.965  42.843  18.744  0.00  0.00     0.271 C 
ATOM      8  C7  UNL d          29.211  44.848  20.194  0.00  0.00     0.237 C 
ATOM      9  C8  UNL d          29.488  45.705  18.978  0.00  0.00     0.066 C 
ATOM     10  N1  UNL d          29.700  43.483  19.860  0.00  0.00    -0.071 N 
ATOM     11  H11 UNL d          30.682  43.560  19.629  0.00  0.00     0.277 HD
ATOM     12  H12 UNL d          29.678  42.877  20.671  0.00  0.00     0.277 HD
ENDROOT
BRANCH   3  13
ATOM     13  S   UNL d          27.261  43.490  13.847  0.00  0.00     0.256 S 
ATOM     14  O   UNL d          27.485  44.430  12.770  0.00  0.00    -0.201 OA
ATOM     15  O1  UNL d          25.866  43.133  13.873  0.00  0.00    -0.201 OA
BRANCH  13  16
ATOM     16  N   UNL d          28.105  42.187  13.573  0.00  0.00    -0.324 N 
ATOM     17  H3  UNL d          27.651  41.354  13.172  0.00  0.00     0.169 HD
ATOM     18  H4  UNL d          29.111  42.169  13.795  0.00  0.00     0.169 HD
ENDBRANCH  13  16
ENDBRANCH   3  13
TORSDOF 2
