@<TRIPOS>MOLECULE
LIGAND
   33    35     1     0     0
SMALL
No Charge or Current Charge


@<TRIPOS>ATOM
      1 O5*         15.6700    23.5980    10.0340 oh         1 UNL      -0.392400
      2 C5*         16.2980    24.8650     9.8470 c3         1 UNL       0.073000
      3 C4*         15.4040    26.0780    10.2040 c3         1 UNL       0.112600
      4 O4*         15.2460    25.8080    11.6320 os         1 UNL      -0.345700
      5 C3*         16.5030    27.1360    10.0180 c3         1 UNL       0.113500
      6 O3*         15.9340    28.1520     9.1910 oh         1 UNL      -0.386400
      7 C2*         16.9130    27.5680    11.4550 c3         1 UNL       0.128500
      8 O2*         16.8170    28.9510    11.8080 oh         1 UNL      -0.384700
      9 C1*         16.0220    26.7420    12.3880 c3         1 UNL       0.165500
     10 N           16.6310    26.2200    13.6550 na         1 UNL      -0.300800
     11 C           17.2020    26.9880    14.7000 cc         1 UNL       0.099200
     12 N1          17.6920    26.2980    15.7120 nd         1 UNL      -0.232200
     13 C6          17.4420    24.9680    15.3340 ca         1 UNL       0.128400
     14 C7          17.7230    23.6890    15.9660 ca         1 UNL       0.143800
     15 N2          18.3310    23.5710    17.1430 nh         1 UNL      -0.341400
     16 N3          17.3320    22.5450    15.2950 nb         1 UNL      -0.238400
     17 C8          16.7060    22.6260    14.0880 ca         1 UNL       0.031800
     18 C9          16.3840    23.7440    13.3880 ca         1 UNL      -0.017700
     19 C10         16.7870    24.9050    14.0730 ca         1 UNL       0.075600
     20 H5*         14.6560    23.7320    10.1580 ho         1 UNL       0.209500
     21 H5*1        16.6490    24.8890     8.8000 h1         1 UNL       0.058400
     22 H5*2        17.1880    24.8630    10.5030 h1         1 UNL       0.058400
     23 H4*         14.4560    26.2020     9.6750 h1         1 UNL       0.064700
     24 H3*         17.3990    26.7930     9.4610 h1         1 UNL       0.064700
     25 H6          16.4880    29.0160     9.2780 ho         1 UNL       0.210000
     26 H2*         17.9670    27.2630    11.6090 h1         1 UNL       0.066500
     27 H7          17.7330    29.4040    11.6760 ho         1 UNL       0.210100
     28 H1*         15.2720    27.4690    12.7520 h2         1 UNL       0.086600
     29 H           17.2340    28.0770    14.6700 h5         1 UNL       0.103000
     30 H8          18.5040    22.6370    17.5420 hn         1 UNL       0.143800
     31 H9          18.6290    24.4130    17.6550 hn         1 UNL       0.143800
     32 H10         16.4300    21.6770    13.6280 h4         1 UNL       0.083100
     33 H11         15.8790    23.7420    12.4220 ha         1 UNL       0.065400
@<TRIPOS>BOND
     1     1     2 1   
     2     2     3 1   
     3     3     4 1   
     4     3     5 1   
     5     4     9 1   
     6     5     6 1   
     7     5     7 1   
     8     7     8 1   
     9     7     9 1   
    10     9    10 1   
    11    10    11 1   
    12    10    19 1   
    13    11    12 2   
    14    12    13 1   
    15    13    14 ar  
    16    13    19 ar  
    17    14    15 1   
    18    14    16 ar  
    19    16    17 ar  
    20    17    18 ar  
    21    18    19 ar  
    22     1    20 1   
    23     2    21 1   
    24     2    22 1   
    25     3    23 1   
    26     5    24 1   
    27     6    25 1   
    28     7    26 1   
    29     8    27 1   
    30     9    28 1   
    31    11    29 1   
    32    15    30 1   
    33    15    31 1   
    34    17    32 1   
    35    18    33 1   
@<TRIPOS>SUBSTRUCTURE
     1 UNL         1 TEMP              0 ****  ****    0 ROOT
