REMARK  2 active torsions:
REMARK  status: ('A' for Active; 'I' for Inactive)
REMARK    1  A    between atoms: CA_15  and  C5_16 
REMARK    2  A    between atoms: C5_16  and  O1_17 
ROOT
ATOM      1  C   UNL d          -8.350   8.309  19.918  0.00  0.00     0.141 A 
ATOM      2  N   UNL d          -9.107   9.037  19.073  0.00  0.00    -0.371 N 
ATOM      3  C1  UNL d          -9.183   8.808  17.707  0.00  0.00     0.179 A 
ATOM      4  N1  UNL d          -9.913   9.531  16.981  0.00  0.00    -0.045 NA
ATOM      5  C2  UNL d         -10.042   9.367  15.609  0.00  0.00     0.703 A 
ATOM      6  N2  UNL d         -10.760  10.085  14.925  0.00  0.00    -0.233 N 
ATOM      7  H   UNL d         -10.827   9.928  13.909  0.00  0.00     0.174 HD
ATOM      8  H3  UNL d         -11.297  10.845  15.365  0.00  0.00     0.174 HD
ATOM      9  C3  UNL d          -8.445   7.773  17.143  0.00  0.00     0.193 A 
ATOM     10  C4  UNL d          -8.506   7.520  15.753  0.00  0.00     0.294 A 
ATOM     11  N3  UNL d          -9.294   8.335  15.116  0.00  0.00    -0.152 N 
ATOM     12  H4  UNL d          -9.364   8.182  14.100  0.00  0.00     0.187 HD
ATOM     13  O   UNL d          -7.860   6.607  15.236  0.00  0.00    -0.265 OA
ATOM     14  N4  UNL d          -7.610   6.951  18.003  0.00  0.00    -0.140 NA
ATOM     15 CA   UNL d          -7.491   7.106  19.276  0.00  0.00     0.000 Ca
ATOM     16  H8  UNL d          -9.663   9.810  19.465  0.00  0.00     0.161 HD
ENDROOT
BRANCH  15  17
ATOM     17  C5  UNL d          -6.690   6.344  20.210  0.00  0.00     0.190 C 
BRANCH  17  18
ATOM     18  O1  UNL d          -5.798   5.476  19.528  0.00  0.00    -0.399 OA
ATOM     19  H5  UNL d          -6.176   5.259  18.595  0.00  0.00     0.209 HD
ENDBRANCH  17  18
ENDBRANCH  15  17
TORSDOF 2
