@<TRIPOS>MOLECULE
LIGAND
   28    29     1     0     0
SMALL
No Charge or Current Charge


@<TRIPOS>ATOM
      1 C           31.0850    66.8500     6.1040 c3         1 UNL       0.045700
      2 H           31.6000    65.9430     5.7310 h1         1 UNL       0.057800
      3 O           31.6160    67.9930     5.4120 oh         1 UNL      -0.393300
      4 H1          32.5150    68.2640     5.8350 ho         1 UNL       0.209700
      5 C1          31.2910    67.0030     7.6490 c3         1 UNL      -0.022400
      6 H2          30.7290    67.8810     8.0080 hx         1 UNL       0.014500
      7 N           30.7310    65.8070     8.3070 n4         1 UNL       0.386700
      8 H3          31.1370    65.0170     7.8140 hn         1 UNL      -0.081100
      9 C2          29.2560    65.6700     8.1360 c3         1 UNL      -0.089800
     10 H4          28.7690    66.5670     8.5440 hx         1 UNL       0.005900
     11 H5          28.9190    64.7980     8.7140 hx         1 UNL       0.005900
     12 C3          28.9520    65.4970     6.6230 c3         1 UNL      -0.065700
     13 H6          27.8600    65.4470     6.4880 hc         1 UNL       0.024800
     14 H7          29.3620    64.5410     6.2520 hc         1 UNL       0.024800
     15 C4          29.5540    66.6860     5.8180 c3         1 UNL      -0.030000
     16 H8          29.3860    66.5560     4.7330 hc         1 UNL       0.028900
     17 H9          29.0410    67.6250     6.0960 hc         1 UNL       0.028900
     18 C5          31.2840    65.7130     9.6520 c3         1 UNL      -0.060900
     19 H10         31.3550    64.6590     9.9490 hx         1 UNL       0.008500
     20 H11         30.5890    66.2130    10.3460 hx         1 UNL       0.008500
     21 C6          32.6480    66.4480     9.5970 c3         1 UNL       0.065100
     22 H12         32.6930    67.2190    10.3870 h1         1 UNL       0.059900
     23 O1          33.7150    65.5340     9.8330 oh         1 UNL      -0.391200
     24 H13         33.3500    64.6920    10.3010 ho         1 UNL       0.209800
     25 C7          32.7550    67.0820     8.1610 c3         1 UNL       0.069800
     26 H14         33.1110    68.1250     8.1590 h1         1 UNL       0.060300
     27 O2          33.6410    66.3140     7.3190 oh         1 UNL      -0.390800
     28 H15         33.3360    66.3900     6.3380 ho         1 UNL       0.209800
@<TRIPOS>BOND
     1     1     3 1   
     2     1     5 1   
     3     1    15 1   
     4     1     2 1   
     5     3     4 1   
     6     5     7 1   
     7     5    25 1   
     8     5     6 1   
     9     7     9 1   
    10     7    18 1   
    11     7     8 1   
    12     9    12 1   
    13     9    10 1   
    14     9    11 1   
    15    12    15 1   
    16    12    13 1   
    17    12    14 1   
    18    15    16 1   
    19    15    17 1   
    20    18    21 1   
    21    18    19 1   
    22    18    20 1   
    23    21    23 1   
    24    21    25 1   
    25    21    22 1   
    26    23    24 1   
    27    25    27 1   
    28    25    26 1   
    29    27    28 1   
@<TRIPOS>SUBSTRUCTURE
     1 UNL         1 TEMP              0 ****  ****    0 ROOT
