@<TRIPOS>MOLECULE
LIGAND
   32    34     1     0     0
SMALL
No Charge or Current Charge


@<TRIPOS>ATOM
      1 C            7.9580    36.7200    19.3390 ca         1 UNL       0.116500
      2 C1           8.9510    35.8750    18.7740 ca         1 UNL       0.117500
      3 C2           8.5400    34.6280    18.2160 ca         1 UNL       0.327800
      4 N            7.2920    34.2150    18.2740 nb         1 UNL       0.023700
      5 C3           6.3290    34.9700    18.8520 ca         1 UNL       0.421300
      6 N1           6.5800    36.2200    19.3310 na         1 UNL      -0.236500
      7 H            5.8110    36.8070    19.6830 hn         1 UNL       0.265500
      8 N2           9.2860    33.6710    17.6330 nh         1 UNL      -0.245800
      9 H1           8.8380    32.8160    17.2740 hn         1 UNL       0.288400
     10 H2          10.3050    33.7940    17.5450 hn         1 UNL       0.288400
     11 C4           8.2440    37.9530    19.9000 ca         1 UNL      -0.022300
     12 H3           7.4510    38.5650    20.3310 ha         1 UNL       0.065200
     13 C5           9.5660    38.3970    19.9030 ca         1 UNL      -0.057400
     14 H4           9.8130    39.3590    20.3520 ha         1 UNL       0.061900
     15 C6          10.5870    37.6080    19.3270 ca         1 UNL      -0.046900
     16 H5          11.6090    37.9860    19.2950 ha         1 UNL       0.062900
     17 C7          10.3120    36.4060    18.8230 ca         1 UNL       0.030900
     18 N3           5.0510    34.5900    18.9540 nh         1 UNL      -0.241600
     19 H6           4.3640    35.2100    19.4060 hn         1 UNL       0.242100
     20 H7           4.7540    33.6770    18.5810 hn         1 UNL       0.242100
     21 S           11.6410    35.3450    18.2390 ss         1 UNL      -0.088500
     22 C8          13.0000    36.4830    18.0480 ca         1 UNL       0.012800
     23 C9          12.9820    37.3800    17.0130 ca         1 UNL      -0.048000
     24 H8          12.1260    37.4100    16.3390 ha         1 UNL       0.062900
     25 C10         14.0670    38.2710    16.8100 ca         1 UNL      -0.060700
     26 H9          14.0370    39.0370    16.0350 ha         1 UNL       0.061800
     27 C11         15.1960    38.1200    17.6620 ca         1 UNL      -0.061700
     28 H10         16.0750    38.7390    17.4810 ha         1 UNL       0.061800
     29 C12         15.2230    37.2210    18.7080 ca         1 UNL      -0.060700
     30 H11         16.0820    37.1930    19.3780 ha         1 UNL       0.061800
     31 C13         14.1200    36.3210    18.9160 ca         1 UNL      -0.048000
     32 H12         14.1390    35.5580    19.6940 ha         1 UNL       0.062900
@<TRIPOS>BOND
     1     1     2 ar  
     2     1     6 1   
     3     1    11 ar  
     4     2     3 ar  
     5     2    17 ar  
     6     3     4 ar  
     7     3     8 1   
     8     4     5 ar  
     9     5     6 2   
    10     5    18 1   
    11     6     7 1   
    12     8     9 1   
    13     8    10 1   
    14    11    13 ar  
    15    11    12 1   
    16    13    15 ar  
    17    13    14 1   
    18    15    17 ar  
    19    15    16 1   
    20    17    21 1   
    21    18    19 1   
    22    18    20 1   
    23    21    22 1   
    24    22    23 ar  
    25    22    31 ar  
    26    23    25 ar  
    27    23    24 1   
    28    25    27 ar  
    29    25    26 1   
    30    27    29 ar  
    31    27    28 1   
    32    29    31 ar  
    33    29    30 1   
    34    31    32 1   
@<TRIPOS>SUBSTRUCTURE
     1 UNL         1 TEMP              0 ****  ****    0 ROOT
