REMARK  3 active torsions:
REMARK  status: ('A' for Active; 'I' for Inactive)
REMARK    1  A    between atoms: C_2  and  N3_14 
REMARK    2  A    between atoms: C2_4  and  C4_7 
REMARK    3  A    between atoms: C3_5  and  C10_15 
ROOT
ATOM      1  N   UNL d          29.876   4.105  56.353  0.00  0.00    -0.047 NA
ATOM      2  C   UNL d          29.343   5.048  55.473  0.00  0.00     0.700 A 
ATOM      3  C1  UNL d          29.533   4.155  57.687  0.00  0.00     0.153 A 
ATOM      4  C2  UNL d          28.530   5.144  58.182  0.00  0.00     0.043 A 
ATOM      5  C3  UNL d          28.047   6.113  57.147  0.00  0.00     0.041 A 
ATOM      6  N1  UNL d          28.414   6.029  55.837  0.00  0.00    -0.193 N 
ATOM      7  N2  UNL d          30.032   3.259  58.567  0.00  0.00    -0.383 N 
ATOM      8  H   UNL d          28.018   6.670  55.134  0.00  0.00     0.184 HD
ATOM      9  H5  UNL d          29.766   3.310  59.561  0.00  0.00     0.157 HD
ATOM     10  H6  UNL d          30.678   2.525  58.244  0.00  0.00     0.157 HD
ENDROOT
BRANCH   4  11
ATOM     11  C4  UNL d          28.105   5.238  59.560  0.00  0.00    -0.020 A 
ATOM     12  C5  UNL d          28.710   6.088  60.501  0.00  0.00     0.014 A 
ATOM     13  C6  UNL d          28.273   6.145  61.845  0.00  0.00     0.024 A 
ATOM     14  C7  UNL d          27.182   5.306  62.294  0.00  0.00     0.034 A 
ATOM     15  C8  UNL d          26.541   4.453  61.401  0.00  0.00     0.024 A 
ATOM     16 Cl   UNL d          26.781   5.456  63.900  0.00  0.00    -0.084 Cl
ATOM     17  C9  UNL d          26.993   4.419  60.047  0.00  0.00     0.014 A 
ENDBRANCH   4  11
BRANCH   5  18
ATOM     18  C10 UNL d          27.051   7.159  57.569  0.00  0.00     0.054 C 
ATOM     19  C11 UNL d          25.678   7.184  56.935  0.00  0.00     0.011 C 
ENDBRANCH   5  18
BRANCH   2  20
ATOM     20  N3  UNL d          29.710   4.979  54.121  0.00  0.00    -0.233 N 
ATOM     21  H7  UNL d          29.332   5.662  53.449  0.00  0.00     0.174 HD
ATOM     22  H8  UNL d          30.358   4.245  53.800  0.00  0.00     0.174 HD
ENDBRANCH   2  20
TORSDOF 3
