@<TRIPOS>MOLECULE
LIGAND
   41    43     1     0     0
SMALL
No Charge or Current Charge


@<TRIPOS>ATOM
      1 C           57.4160    25.1030    33.0280 c3         1 UNL       0.077900
      2 H           56.3340    25.0340    32.8130 hc         1 UNL       0.042600
      3 C1          57.9150    26.3470    32.3210 c          1 UNL       0.360100
      4 O           57.0850    27.1160    31.7890 o          1 UNL      -0.246000
      5 O1          59.1230    26.6600    32.2440 o          1 UNL      -0.246000
      6 C2          58.1130    23.8370    32.4910 c3         1 UNL      -0.013800
      7 H1          57.6670    22.9270    32.9200 hc         1 UNL       0.032100
      8 H2          59.1750    23.8390    32.7830 hc         1 UNL       0.032100
      9 C3          58.0040    23.7750    30.9750 ca         1 UNL      -0.046600
     10 C4          59.0930    24.1020    30.1700 ca         1 UNL      -0.058600
     11 H3          60.0360    24.3840    30.6390 ha         1 UNL       0.062000
     12 C5          59.0050    24.0770    28.7710 ca         1 UNL      -0.061500
     13 H4          59.8590    24.3750    28.1620 ha         1 UNL       0.061800
     14 C6          57.8070    23.6650    28.1580 ca         1 UNL      -0.061700
     15 H5          57.7400    23.5900    27.0730 ha         1 UNL       0.061800
     16 C7          56.7110    23.3550    28.9530 ca         1 UNL      -0.061500
     17 H6          55.7600    23.1000    28.4860 ha         1 UNL       0.061800
     18 C8          56.8170    23.3670    30.3540 ca         1 UNL      -0.058600
     19 H7          55.9680    23.0560    30.9630 ha         1 UNL       0.062000
     20 C9          57.6370    25.1710    34.5470 c3         1 UNL       0.077900
     21 H8          58.6570    24.8260    34.7950 hc         1 UNL       0.042600
     22 C10         57.5140    26.5790    35.0580 c          1 UNL       0.360100
     23 O2          56.6730    27.3870    34.6000 o          1 UNL      -0.246000
     24 O3          58.2960    26.9840    35.9560 o          1 UNL      -0.246000
     25 C11         56.6260    24.2210    35.2430 c3         1 UNL      -0.013700
     26 H9          56.6110    23.2210    34.7850 hc         1 UNL       0.032100
     27 H10         55.6100    24.6400    35.1790 hc         1 UNL       0.032100
     28 C12         57.0770    24.1100    36.6850 ca         1 UNL      -0.042900
     29 C13         56.4830    24.8980    37.7000 ca         1 UNL      -0.012900
     30 H11         55.6980    25.6230    37.4870 ha         1 UNL       0.065800
     31 C14         56.9680    24.6860    38.9890 ca         1 UNL       0.166500
     32 O4          56.6450    25.3320    40.1140 os         1 UNL      -0.452600
     33 C15         57.4370    24.7990    41.1870 c3         1 UNL       0.233200
     34 H12         56.7890    24.3320    41.9450 h2         1 UNL       0.116600
     35 H13         58.0530    25.5970    41.6320 h2         1 UNL       0.116600
     36 O5          58.2800    23.8030    40.5730 os         1 UNL      -0.452600
     37 C16         57.9960    23.7970    39.2640 ca         1 UNL       0.166200
     38 C17         58.6040    23.0440    38.2630 ca         1 UNL      -0.015900
     39 H14         59.4310    22.3670    38.4780 ha         1 UNL       0.065500
     40 C18         58.0950    23.2020    36.9550 ca         1 UNL      -0.054900
     41 H15         58.5070    22.6020    36.1440 ha         1 UNL       0.062100
@<TRIPOS>BOND
     1     1     3 1   
     2     1     6 1   
     3     1    20 1   
     4     1     2 1   
     5     3     4 1   
     6     3     5 1   
     7     6     9 1   
     8     6     7 1   
     9     6     8 1   
    10     9    10 ar  
    11     9    18 ar  
    12    10    12 ar  
    13    10    11 1   
    14    12    14 ar  
    15    12    13 1   
    16    14    16 ar  
    17    14    15 1   
    18    16    18 ar  
    19    16    17 1   
    20    18    19 1   
    21    20    22 1   
    22    20    25 1   
    23    20    21 1   
    24    22    23 1   
    25    22    24 1   
    26    25    28 1   
    27    25    26 1   
    28    25    27 1   
    29    28    29 ar  
    30    28    40 ar  
    31    29    31 ar  
    32    29    30 1   
    33    31    32 1   
    34    31    37 ar  
    35    32    33 1   
    36    33    36 1   
    37    33    34 1   
    38    33    35 1   
    39    36    37 1   
    40    37    38 ar  
    41    38    40 ar  
    42    38    39 1   
    43    40    41 1   
@<TRIPOS>SUBSTRUCTURE
     1 UNL         1 TEMP              0 ****  ****    0 ROOT
