REMARK  7 active torsions:
REMARK  status: ('A' for Active; 'I' for Inactive)
REMARK    1  A    between atoms: C_1  and  C1_2 
REMARK    2  A    between atoms: C_1  and  C2_5 
REMARK    3  A    between atoms: C_1  and  C9_12 
REMARK    4  A    between atoms: C2_5  and  C3_6 
REMARK    5  A    between atoms: C9_12  and  C10_13 
REMARK    6  A    between atoms: C9_12  and  C11_16 
REMARK    7  A    between atoms: C11_16  and  C12_17 
ROOT
ATOM      1  C9  UNL d          57.637  25.171  34.547  0.00  0.00     0.105 C 
ENDROOT
BRANCH   1   2
ATOM      2  C   UNL d          57.416  25.103  33.028  0.00  0.00     0.105 C 
BRANCH   2   3
ATOM      3  C1  UNL d          57.915  26.347  32.321  0.00  0.00     0.178 C 
ATOM      4  O   UNL d          57.085  27.116  31.789  0.00  0.00    -0.648 OA
ATOM      5  O1  UNL d          59.123  26.660  32.244  0.00  0.00    -0.648 OA
ENDBRANCH   2   3
BRANCH   2   6
ATOM      6  C2  UNL d          58.113  23.837  32.491  0.00  0.00     0.054 C 
BRANCH   6   7
ATOM      7  C3  UNL d          58.004  23.775  30.975  0.00  0.00    -0.057 A 
ATOM      8  C4  UNL d          59.093  24.102  30.170  0.00  0.00     0.007 A 
ATOM      9  C5  UNL d          59.005  24.077  28.771  0.00  0.00     0.001 A 
ATOM     10  C6  UNL d          57.807  23.665  28.158  0.00  0.00     0.000 A 
ATOM     11  C7  UNL d          56.711  23.355  28.953  0.00  0.00     0.001 A 
ATOM     12  C8  UNL d          56.817  23.367  30.354  0.00  0.00     0.007 A 
ENDBRANCH   6   7
ENDBRANCH   2   6
ENDBRANCH   1   2
BRANCH   1  13
ATOM     13  C10 UNL d          57.514  26.579  35.058  0.00  0.00     0.178 C 
ATOM     14  O2  UNL d          56.673  27.387  34.600  0.00  0.00    -0.648 OA
ATOM     15  O3  UNL d          58.296  26.984  35.956  0.00  0.00    -0.648 OA
ENDBRANCH   1  13
BRANCH   1  16
ATOM     16  C11 UNL d          56.626  24.221  35.243  0.00  0.00     0.055 C 
BRANCH  16  17
ATOM     17  C12 UNL d          57.077  24.110  36.685  0.00  0.00    -0.054 A 
ATOM     18  C13 UNL d          56.483  24.898  37.700  0.00  0.00     0.047 A 
ATOM     19  C14 UNL d          56.968  24.686  38.989  0.00  0.00     0.105 A 
ATOM     20  O4  UNL d          56.645  25.332  40.114  0.00  0.00    -0.323 OA
ATOM     21  C16 UNL d          57.996  23.797  39.264  0.00  0.00     0.105 A 
ATOM     22  C15 UNL d          57.437  24.799  41.187  0.00  0.00     0.352 A 
ATOM     23  O5  UNL d          58.280  23.803  40.573  0.00  0.00    -0.323 OA
ATOM     24  C17 UNL d          58.604  23.044  38.263  0.00  0.00     0.040 A 
ATOM     25  C18 UNL d          58.095  23.202  36.955  0.00  0.00     0.010 A 
ENDBRANCH  16  17
ENDBRANCH   1  16
TORSDOF 7
