REMARK  7 active torsions:
REMARK  status: ('A' for Active; 'I' for Inactive)
REMARK    1  A    between atoms: C_1  and  C10_16 
REMARK    2  A    between atoms: C6_7  and  C10_16 
REMARK    3  A    between atoms: N_8  and  C14_20 
REMARK    4  A    between atoms: C9_15  and  C11_17 
REMARK    5  A    between atoms: C14_20  and  O2_21 
REMARK    6  A    between atoms: O2_21  and  C15_22 
REMARK    7  A    between atoms: C15_22  and  C16_23 
ROOT
ATOM      1  C6  UNL d          -1.826 -35.676  24.679  0.00  0.00     0.035 A 
ATOM      2  N   UNL d          -2.601 -34.807  23.874  0.00  0.00    -0.280 N 
ATOM      3  C7  UNL d          -2.522 -34.843  22.462  0.00  0.00     0.331 A 
ATOM      4  O   UNL d          -3.202 -34.135  21.722  0.00  0.00    -0.246 OA
ATOM      5  N1  UNL d          -1.643 -35.766  21.926  0.00  0.00    -0.275 N 
ATOM      6  H5  UNL d          -1.575 -35.796  20.899  0.00  0.00     0.173 HD
ATOM      7  C8  UNL d          -0.841 -36.659  22.631  0.00  0.00     0.257 A 
ATOM      8  O1  UNL d          -0.097 -37.424  22.020  0.00  0.00    -0.267 OA
ATOM      9  C9  UNL d          -0.948 -36.612  24.076  0.00  0.00     0.037 A 
ENDROOT
BRANCH   2  10
ATOM     10  C14 UNL d          -3.595 -33.857  24.460  0.00  0.00     0.303 C 
BRANCH  10  11
ATOM     11  O2  UNL d          -4.872 -34.061  23.881  0.00  0.00    -0.367 OA
BRANCH  11  12
ATOM     12  C15 UNL d          -5.915 -33.931  24.833  0.00  0.00     0.208 C 
BRANCH  12  13
ATOM     13  C16 UNL d          -7.052 -34.848  24.505  0.00  0.00    -0.035 A 
ATOM     14  C17 UNL d          -6.953 -35.738  23.418  0.00  0.00     0.009 A 
ATOM     15  C18 UNL d          -7.970 -36.681  23.177  0.00  0.00     0.001 A 
ATOM     16  C19 UNL d          -9.093 -36.729  24.033  0.00  0.00     0.000 A 
ATOM     17  C20 UNL d          -9.189 -35.828  25.121  0.00  0.00     0.001 A 
ATOM     18  C21 UNL d          -8.164 -34.888  25.350  0.00  0.00     0.009 A 
ENDBRANCH  12  13
ENDBRANCH  11  12
ENDBRANCH  10  11
ENDBRANCH   2  10
BRANCH   1  19
ATOM     19  C10 UNL d          -2.023 -35.580  26.203  0.00  0.00     0.096 C 
BRANCH  19  20
ATOM     20  C   UNL d          -1.378 -34.460  27.005  0.00  0.00    -0.053 A 
ATOM     21  C1  UNL d          -2.139 -33.802  27.985  0.00  0.00     0.007 A 
ATOM     22  C2  UNL d          -1.530 -32.826  28.816  0.00  0.00     0.001 A 
ATOM     23  C3  UNL d          -0.152 -32.513  28.654  0.00  0.00     0.000 A 
ATOM     24  C4  UNL d           0.607 -33.172  27.666  0.00  0.00     0.001 A 
ATOM     25  C5  UNL d          -0.012 -34.143  26.843  0.00  0.00     0.007 A 
ENDBRANCH  19  20
ENDBRANCH   1  19
BRANCH   9  26
ATOM     26  C11 UNL d          -0.134 -37.707  24.795  0.00  0.00     0.018 C 
ATOM     27  C12 UNL d          -0.979 -38.784  25.502  0.00  0.00     0.015 C 
ATOM     28  C13 UNL d           1.059 -37.190  25.571  0.00  0.00     0.015 C 
ENDBRANCH   9  26
TORSDOF 7
