@<TRIPOS>MOLECULE
LIGAND
   51    53     1     0     0
SMALL
No Charge or Current Charge


@<TRIPOS>ATOM
      1 C           -1.3780   -34.4600    27.0050 ca         1 UNL      -0.041600
      2 C1          -2.1390   -33.8020    27.9850 ca         1 UNL      -0.058200
      3 H           -3.1960   -34.0410    28.1070 ha         1 UNL       0.062000
      4 C2          -1.5300   -32.8260    28.8160 ca         1 UNL      -0.061500
      5 H1          -2.1190   -32.3160    29.5790 ha         1 UNL       0.061800
      6 C3          -0.1520   -32.5130    28.6540 ca         1 UNL      -0.061700
      7 H2           0.3160   -31.7650    29.2930 ha         1 UNL       0.061800
      8 C4           0.6070   -33.1720    27.6660 ca         1 UNL      -0.061500
      9 H3           1.6630   -32.9360    27.5370 ha         1 UNL       0.061800
     10 C5          -0.0120   -34.1430    26.8430 ca         1 UNL      -0.058200
     11 H4           0.5720   -34.6510    26.0760 ha         1 UNL       0.062000
     12 C6          -1.8260   -35.6760    24.6790 cc         1 UNL       0.038500
     13 N           -2.6010   -34.8070    23.8740 n          1 UNL      -0.273400
     14 C7          -2.5220   -34.8430    22.4620 c          1 UNL       0.331300
     15 O           -3.2020   -34.1350    21.7220 o          1 UNL      -0.246400
     16 N1          -1.6430   -35.7660    21.9260 n          1 UNL      -0.274600
     17 H5          -1.5750   -35.7960    20.8990 hn         1 UNL       0.173400
     18 C8          -0.8410   -36.6590    22.6310 c          1 UNL       0.257600
     19 O1          -0.0970   -37.4240    22.0200 o          1 UNL      -0.267400
     20 C9          -0.9480   -36.6120    24.0760 cd         1 UNL       0.039400
     21 C10         -2.0230   -35.5800    26.2030 c3         1 UNL       0.013600
     22 H6          -3.0950   -35.6510    26.4430 hc         1 UNL       0.037600
     23 H7          -1.6150   -36.4950    26.6550 hc         1 UNL       0.037600
     24 C11         -0.1340   -37.7070    24.7950 c3         1 UNL      -0.014700
     25 H8           0.3650   -38.3270    24.0250 hc         1 UNL       0.034600
     26 C12         -0.9790   -38.7840    25.5020 c3         1 UNL      -0.058400
     27 H9          -1.4520   -38.4650    26.4390 hc         1 UNL       0.023500
     28 H10         -1.7760   -39.1450    24.8300 hc         1 UNL       0.023500
     29 H11         -0.3510   -39.6560    25.7520 hc         1 UNL       0.023500
     30 C13          1.0590   -37.1900    25.5710 c3         1 UNL      -0.058400
     31 H12          1.6180   -36.4390    24.9880 hc         1 UNL       0.023500
     32 H13          0.7790   -36.7450    26.5370 hc         1 UNL       0.023500
     33 H14          1.7620   -38.0100    25.7970 hc         1 UNL       0.023500
     34 C14         -3.5950   -33.8570    24.4600 c3         1 UNL       0.128900
     35 H15         -3.2720   -32.8210    24.2390 h2         1 UNL       0.080100
     36 H16         -3.6000   -33.9280    25.5450 h2         1 UNL       0.080100
     37 O2          -4.8720   -34.0610    23.8810 os         1 UNL      -0.354600
     38 C15         -5.9150   -33.9310    24.8330 c3         1 UNL       0.074900
     39 H17         -6.2630   -32.8820    24.8520 h1         1 UNL       0.061100
     40 H18         -5.5900   -34.1670    25.8620 h1         1 UNL       0.061100
     41 C16         -7.0520   -34.8480    24.5050 ca         1 UNL      -0.021900
     42 C17         -6.9530   -35.7380    23.4180 ca         1 UNL      -0.056400
     43 H19         -6.0850   -35.6960    22.7600 ha         1 UNL       0.062100
     44 C18         -7.9700   -36.6810    23.1770 ca         1 UNL      -0.061400
     45 H20         -7.8920   -37.3700    22.3360 ha         1 UNL       0.061800
     46 C19         -9.0930   -36.7290    24.0330 ca         1 UNL      -0.061700
     47 H21         -9.8840   -37.4580    23.8560 ha         1 UNL       0.061800
     48 C20         -9.1890   -35.8280    25.1210 ca         1 UNL      -0.061400
     49 H22        -10.0560   -35.8610    25.7810 ha         1 UNL       0.061800
     50 C21         -8.1640   -34.8880    25.3500 ca         1 UNL      -0.056400
     51 H23         -8.2390   -34.1930    26.1860 ha         1 UNL       0.062100
@<TRIPOS>BOND
     1     1     2 ar  
     2     1    10 ar  
     3     1    21 1   
     4     2     4 ar  
     5     2     3 1   
     6     4     6 ar  
     7     4     5 1   
     8     6     8 ar  
     9     6     7 1   
    10     8    10 ar  
    11     8     9 1   
    12    10    11 1   
    13    12    13 1   
    14    12    20 2   
    15    12    21 1   
    16    13    14 1   
    17    13    34 1   
    18    14    15 2   
    19    14    16 1   
    20    16    18 1   
    21    16    17 1   
    22    18    19 2   
    23    18    20 1   
    24    20    24 1   
    25    21    22 1   
    26    21    23 1   
    27    24    26 1   
    28    24    30 1   
    29    24    25 1   
    30    26    27 1   
    31    26    28 1   
    32    26    29 1   
    33    30    31 1   
    34    30    32 1   
    35    30    33 1   
    36    34    37 1   
    37    34    35 1   
    38    34    36 1   
    39    37    38 1   
    40    38    41 1   
    41    38    39 1   
    42    38    40 1   
    43    41    42 ar  
    44    41    50 ar  
    45    42    44 ar  
    46    42    43 1   
    47    44    46 ar  
    48    44    45 1   
    49    46    48 ar  
    50    46    47 1   
    51    48    50 ar  
    52    48    49 1   
    53    50    51 1   
@<TRIPOS>SUBSTRUCTURE
     1 UNL         1 TEMP              0 ****  ****    0 ROOT
