@<TRIPOS>MOLECULE
LIGAND
   33    34     1     0     0
SMALL
No Charge or Current Charge


@<TRIPOS>ATOM
      1 OD1         45.2230    28.2880     9.3080 o          1 ASP      -0.246300
      2 CG          45.8570    29.0940    10.1670 c          1 ASP       0.358300
      3 OD2         46.1510    30.3310     9.8700 o          1 ASP      -0.246300
      4 CB          46.2030    28.5530    11.5690 c3         1 ASP       0.078000
      5 CA          47.6410    27.9310    11.5210 c3         1 ASP       0.134900
      6 C           48.5050    28.5790    10.4430 c          1 ASP       0.376400
      7 O           49.2410    29.6610    10.7560 o          1 ASP      -0.244300
      8 OXT         48.5620    28.0390     9.2970 o          1 ASP      -0.244300
      9 N           48.3210    28.1780    12.7980 n          1 ASP      -0.301500
     10 C           47.8190    27.7160    14.0250 c          0 UNK       0.218100
     11 O           46.8190    27.0240    14.0880 o          0 UNK      -0.275400
     12 C1          48.6350    28.0620    15.2670 c3         0 UNK       0.051100
     13 C2          50.0020    27.3790    15.1760 cc         0 UNK      -0.013600
     14 C3          51.2550    28.0140    15.2990 cd         0 UNK       0.006400
     15 N           52.2180    27.0150    15.1780 na         0 UNK      -0.360400
     16 C4          50.2100    25.9880    15.0420 ca         0 UNK       0.003300
     17 C5          49.3270    24.9110    14.9690 ca         0 UNK      -0.052300
     18 C6          51.5910    25.7880    15.0160 ca         0 UNK       0.046700
     19 C7          52.1030    24.4930    14.8910 ca         0 UNK      -0.037800
     20 C8          51.2350    23.4210    14.7960 ca         0 UNK      -0.059800
     21 C9          49.8650    23.6370    14.8290 ca         0 UNK      -0.061100
     22 HB1         45.4510    27.8090    11.8710 hc         1 ASP       0.040300
     23 HB2         46.1780    29.3820    12.2900 hc         1 ASP       0.040300
     24 HA          47.5770    26.8470    11.3380 h1         1 ASP       0.062100
     25 H           49.2020    28.7120    12.7940 hn         1 ASP       0.149500
     26 H           48.0710    27.7090    16.1380 hc         0 UNK       0.040800
     27 H1          48.7750    29.1500    15.3330 hc         0 UNK       0.040800
     28 H2          51.4350    29.0770    15.4580 h4         0 UNK       0.081000
     29 H3          53.2370    27.1640    15.2050 hn         0 UNK       0.165300
     30 H4          48.2490    25.0640    15.0200 ha         0 UNK       0.062400
     31 H5          53.1800    24.3290    14.8690 ha         0 UNK       0.063800
     32 H6          51.6260    22.4090    14.6950 ha         0 UNK       0.061800
     33 H7          49.1920    22.7840    14.7430 ha         0 UNK       0.061800
@<TRIPOS>BOND
     1     1     2 1   
     2     2     3 1   
     3     2     4 1   
     4     4     5 1   
     5     5     6 1   
     6     5     9 1   
     7     6     7 1   
     8     6     8 1   
     9     9    10 1   
    10    10    11 2   
    11    10    12 1   
    12    12    13 1   
    13    13    14 2   
    14    13    16 1   
    15    14    15 1   
    16    15    18 1   
    17    16    17 ar  
    18    16    18 ar  
    19    17    21 ar  
    20    18    19 ar  
    21    19    20 ar  
    22    20    21 ar  
    23     4    22 1   
    24     4    23 1   
    25     5    24 1   
    26     9    25 1   
    27    12    26 1   
    28    12    27 1   
    29    14    28 1   
    30    15    29 1   
    31    17    30 1   
    32    19    31 1   
    33    20    32 1   
    34    21    33 1   
@<TRIPOS>SUBSTRUCTURE
     1 ASP         1 TEMP              0 ****  ****    0 ROOT
