REMARK  11 active torsions:
REMARK  status: ('A' for Active; 'I' for Inactive)
REMARK    1  A    between atoms: C_1  and  O_2 
REMARK    2  A    between atoms: C4_6  and  C7_9 
REMARK    3  A    between atoms: N_11  and  C8_12 
REMARK    4  A    between atoms: C8_12  and  C9_13 
REMARK    5  A    between atoms: C8_12  and  C16_20 
REMARK    6  A    between atoms: C9_13  and  C10_14 
REMARK    7  A    between atoms: C16_20  and  O2_21 
REMARK    8  A    between atoms: C16_20  and  C17_22 
REMARK       I    between atoms: C17_22  and  N1_24 
REMARK    9  A    between atoms: C22_30  and  C23_31 
REMARK       I    between atoms: C23_31  and  N2_33 
REMARK   10  A    between atoms: N2_33  and  C24_34 
REMARK   11  A    between atoms: C24_34  and  C25_35 
ROOT
ATOM      1  C16 UNL d          20.868  -0.504  15.603  0.00  0.00     0.233 C 
ENDROOT
BRANCH   1   2
ATOM      2  C8  UNL d          20.173  -0.362  16.980  0.00  0.00     0.126 C 
BRANCH   2   3
ATOM      3  N   UNL d          20.970   0.659  17.757  0.00  0.00    -0.360 N 
ATOM      4  C7  UNL d          21.848   0.267  18.666  0.00  0.00     0.186 C 
ATOM      5  O1  UNL d          22.069  -0.990  18.943  0.00  0.00    -0.172 OA
ATOM      6  H7  UNL d          20.830   1.664  17.579  0.00  0.00     0.162 HD
BRANCH   4   7
ATOM      7  C4  UNL d          22.533   1.347  19.433  0.00  0.00     0.026 A 
ATOM      8  C3  UNL d          21.727   2.354  20.024  0.00  0.00     0.016 A 
ATOM      9  C2  UNL d          22.339   3.432  20.726  0.00  0.00     0.004 A 
ATOM     10  C1  UNL d          23.687   3.448  20.947  0.00  0.00     0.037 A 
ATOM     11  C   UNL d          24.500   2.399  20.424  0.00  0.00     0.072 A 
ATOM     12  C5  UNL d          23.950   1.358  19.605  0.00  0.00    -0.014 A 
ATOM     13  C6  UNL d          24.899   0.374  18.930  0.00  0.00     0.052 C 
BRANCH  11  14
ATOM     14  O   UNL d          25.856   2.446  20.562  0.00  0.00    -0.360 OA
ATOM     15  H   UNL d          26.231   3.228  20.006  0.00  0.00     0.217 HD
ENDBRANCH  11  14
ENDBRANCH   4   7
ENDBRANCH   2   3
BRANCH   2  16
ATOM     16  C9  UNL d          18.686   0.194  16.874  0.00  0.00     0.066 C 
BRANCH  16  17
ATOM     17  C10 UNL d          18.148   0.637  18.212  0.00  0.00    -0.056 A 
ATOM     18  C11 UNL d          18.094   2.032  18.521  0.00  0.00     0.007 A 
ATOM     19  C12 UNL d          17.677   2.408  19.838  0.00  0.00     0.001 A 
ATOM     20  C13 UNL d          17.324   1.460  20.812  0.00  0.00     0.000 A 
ATOM     21  C14 UNL d          17.375   0.104  20.472  0.00  0.00     0.001 A 
ATOM     22  C15 UNL d          17.797  -0.295  19.213  0.00  0.00     0.007 A 
ENDBRANCH  16  17
ENDBRANCH   2  16
ENDBRANCH   1   2
BRANCH   1  23
ATOM     23  O2  UNL d          20.521   0.582  14.746  0.00  0.00    -0.384 OA
ATOM     24  H17 UNL d          21.177   1.362  14.897  0.00  0.00     0.210 HD
ENDBRANCH   1  23
BRANCH   1  25
ATOM     25  C17 UNL d          20.360  -1.785  14.942  0.00  0.00     0.252 C 
ATOM     26  O3  UNL d          19.299  -1.864  14.288  0.00  0.00    -0.270 OA
ATOM     27  N1  UNL d          21.105  -2.923  15.130  0.00  0.00    -0.326 N 
ATOM     28  C18 UNL d          22.390  -2.947  15.922  0.00  0.00     0.201 C 
ATOM     29  C22 UNL d          20.635  -4.226  14.610  0.00  0.00     0.198 C 
ATOM     30  S   UNL d          22.775  -4.705  16.144  0.00  0.00    -0.137 SA
ATOM     31  C19 UNL d          21.898  -5.137  14.596  0.00  0.00     0.032 C 
ATOM     32  C20 UNL d          22.745  -4.760  13.379  0.00  0.00     0.029 C 
ATOM     33  C21 UNL d          21.562  -6.638  14.515  0.00  0.00     0.029 C 
BRANCH  29  34
ATOM     34  C23 UNL d          19.474  -4.746  15.483  0.00  0.00     0.242 C 
ATOM     35  O4  UNL d          19.360  -4.502  16.721  0.00  0.00    -0.271 OA
ATOM     36  N2  UNL d          18.568  -5.561  14.791  0.00  0.00    -0.355 N 
ATOM     37  H27 UNL d          18.698  -5.715  13.781  0.00  0.00     0.162 HD
BRANCH  36  38
ATOM     38  C24 UNL d          17.426  -6.206  15.483  0.00  0.00     0.161 C 
BRANCH  38  39
ATOM     39  C25 UNL d          16.136  -5.981  14.682  0.00  0.00    -0.035 A 
ATOM     40  C26 UNL d          15.480  -4.731  14.667  0.00  0.00    -0.054 A 
ATOM     41  C27 UNL d          14.267  -4.624  13.979  0.00  0.00     0.007 A 
ATOM     42  C31 UNL d          16.013  -3.575  15.420  0.00  0.00     0.049 C 
ATOM     43  C28 UNL d          13.736  -5.747  13.296  0.00  0.00     0.001 A 
ATOM     44  C29 UNL d          14.365  -6.959  13.309  0.00  0.00     0.001 A 
ATOM     45  C30 UNL d          15.577  -7.073  14.028  0.00  0.00     0.009 A 
ENDBRANCH  38  39
ENDBRANCH  36  38
ENDBRANCH  29  34
ENDBRANCH   1  25
TORSDOF 11
