@<TRIPOS>MOLECULE
LIGAND
   78    81     1     0     0
SMALL
No Charge or Current Charge


@<TRIPOS>ATOM
      1 C           24.5000     2.3990    20.4240 ca         1 UNL       0.120500
      2 O           25.8560     2.4460    20.5620 oh         1 UNL      -0.506500
      3 C1          23.6870     3.4480    20.9470 ca         1 UNL      -0.019900
      4 C2          22.3390     3.4320    20.7260 ca         1 UNL      -0.057600
      5 C3          21.7270     2.3540    20.0240 ca         1 UNL      -0.049200
      6 C4          22.5330     1.3470    19.4330 ca         1 UNL       0.043100
      7 C5          23.9500     1.3580    19.6050 ca         1 UNL       0.003000
      8 C6          24.8990     0.3740    18.9300 c3         1 UNL      -0.035500
      9 C7          21.8480     0.2670    18.6660 c          1 UNL       0.244800
     10 O1          22.0690    -0.9900    18.9430 o          1 UNL      -0.270200
     11 N           20.9700     0.6590    17.7570 n          1 UNL      -0.305200
     12 C8          20.1730    -0.3620    16.9800 c3         1 UNL       0.061800
     13 C9          18.6860     0.1940    16.8740 c3         1 UNL      -0.006300
     14 C10         18.1480     0.6370    18.2120 ca         1 UNL      -0.045500
     15 C11         18.0940     2.0320    18.5210 ca         1 UNL      -0.058500
     16 C12         17.6770     2.4080    19.8380 ca         1 UNL      -0.061500
     17 C13         17.3240     1.4600    20.8120 ca         1 UNL      -0.061700
     18 C14         17.3750     0.1040    20.4720 ca         1 UNL      -0.061500
     19 C15         17.7970    -0.2950    19.2130 ca         1 UNL      -0.058500
     20 C16         20.8680    -0.5040    15.6030 c3         1 UNL       0.149500
     21 O2          20.5210     0.5820    14.7460 oh         1 UNL      -0.380700
     22 C17         20.3600    -1.7850    14.9420 c          1 UNL       0.247300
     23 O3          19.2990    -1.8640    14.2880 o          1 UNL      -0.272700
     24 N1          21.1050    -2.9230    15.1300 n          1 UNL      -0.277100
     25 C18         22.3900    -2.9470    15.9220 c3         1 UNL       0.062400
     26 S           22.7750    -4.7050    16.1440 ss         1 UNL      -0.133100
     27 C19         21.8980    -5.1370    14.5960 c3         1 UNL       0.039500
     28 C20         22.7450    -4.7600    13.3790 c3         1 UNL      -0.048500
     29 C21         21.5620    -6.6380    14.5150 c3         1 UNL      -0.048500
     30 C22         20.6350    -4.2260    14.6100 c3         1 UNL       0.117100
     31 C23         19.4740    -4.7460    15.4830 c          1 UNL       0.235200
     32 O4          19.3600    -4.5020    16.7210 o          1 UNL      -0.273700
     33 N2          18.5680    -5.5610    14.7910 n          1 UNL      -0.309600
     34 C24         17.4260    -6.2060    15.4830 c3         1 UNL       0.037100
     35 C25         16.1360    -5.9810    14.6820 ca         1 UNL      -0.027400
     36 C26         15.4800    -4.7310    14.6670 ca         1 UNL      -0.045800
     37 C27         14.2670    -4.6240    13.9790 ca         1 UNL      -0.058500
     38 C28         13.7360    -5.7470    13.2960 ca         1 UNL      -0.061500
     39 C29         14.3650    -6.9590    13.3090 ca         1 UNL      -0.061400
     40 C30         15.5770    -7.0730    14.0280 ca         1 UNL      -0.056800
     41 C31         16.0130    -3.5750    15.4200 c3         1 UNL      -0.039400
     42 H           26.2310     3.2280    20.0060 ho         1 UNL       0.292100
     43 H1          24.1390     4.2580    21.5200 ha         1 UNL       0.065400
     44 H2          21.7240     4.2540    21.0910 ha         1 UNL       0.061900
     45 H3          20.6410     2.3030    19.9410 ha         1 UNL       0.062500
     46 H4          24.4180    -0.1360    18.0840 hc         1 UNL       0.027900
     47 H5          25.7920     0.8850    18.5400 hc         1 UNL       0.027900
     48 H6          25.2300    -0.3980    19.6440 hc         1 UNL       0.027900
     49 H7          20.8300     1.6640    17.5790 hn         1 UNL       0.149400
     50 H8          20.1790    -1.2930    17.5620 h1         1 UNL       0.053200
     51 H9          18.0510    -0.5980    16.4450 hc         1 UNL       0.033200
     52 H10         18.6330     1.0470    16.1800 hc         1 UNL       0.033200
     53 H11         18.3610     2.7840    17.7790 ha         1 UNL       0.062000
     54 H12         17.6320     3.4670    20.0930 ha         1 UNL       0.061800
     55 H13         17.0170     1.7740    21.8100 ha         1 UNL       0.061800
     56 H14         17.0800    -0.6470    21.2050 ha         1 UNL       0.061800
     57 H15         17.8600    -1.3600    18.9890 ha         1 UNL       0.062000
     58 H16         21.9590    -0.5310    15.7420 h1         1 UNL       0.070900
     59 H17         21.1770     1.3620    14.8970 ho         1 UNL       0.210500
     60 H18         22.2500    -2.5020    16.9130 h2         1 UNL       0.058000
     61 H19         23.2000    -2.4370    15.3810 h2         1 UNL       0.058000
     62 H20         22.1980    -5.0030    12.4530 hc         1 UNL       0.024400
     63 H21         22.9960    -3.6880    13.3360 hc         1 UNL       0.024400
     64 H22         23.6960    -5.3170    13.3520 hc         1 UNL       0.024400
     65 H23         20.9970    -6.8510    13.5940 hc         1 UNL       0.024400
     66 H24         22.4790    -7.2500    14.4960 hc         1 UNL       0.024400
     67 H25         20.9590    -6.9830    15.3700 hc         1 UNL       0.024400
     68 H26         20.2650    -4.0990    13.5810 h1         1 UNL       0.061100
     69 H27         18.6980    -5.7150    13.7810 hn         1 UNL       0.149100
     70 H28         17.3280    -5.7710    16.4840 h1         1 UNL       0.051200
     71 H29         17.6230    -7.2820    15.6200 h1         1 UNL       0.051200
     72 H30         13.7290    -3.6760    13.9680 ha         1 UNL       0.062000
     73 H31         12.8010    -5.6400    12.7460 ha         1 UNL       0.061800
     74 H32         13.9450    -7.8140    12.7800 ha         1 UNL       0.061800
     75 H33         16.0840    -8.0370    14.0700 ha         1 UNL       0.062100
     76 H34         17.0070    -3.2730    15.0520 hc         1 UNL       0.027800
     77 H35         15.3570    -2.6960    15.3340 hc         1 UNL       0.027800
     78 H36         16.1200    -3.7980    16.4940 hc         1 UNL       0.027800
@<TRIPOS>BOND
     1     1     2 1   
     2     1     3 ar  
     3     1     7 ar  
     4     3     4 ar  
     5     4     5 ar  
     6     5     6 ar  
     7     6     7 ar  
     8     6     9 1   
     9     7     8 1   
    10     9    10 2   
    11     9    11 1   
    12    11    12 1   
    13    12    13 1   
    14    12    20 1   
    15    13    14 1   
    16    14    15 ar  
    17    14    19 ar  
    18    15    16 ar  
    19    16    17 ar  
    20    17    18 ar  
    21    18    19 ar  
    22    20    21 1   
    23    20    22 1   
    24    22    23 2   
    25    22    24 1   
    26    24    25 1   
    27    24    30 1   
    28    25    26 1   
    29    26    27 1   
    30    27    28 1   
    31    27    29 1   
    32    27    30 1   
    33    30    31 1   
    34    31    32 2   
    35    31    33 1   
    36    33    34 1   
    37    34    35 1   
    38    35    36 ar  
    39    35    40 ar  
    40    36    37 ar  
    41    36    41 1   
    42    37    38 ar  
    43    38    39 ar  
    44    39    40 ar  
    45     2    42 1   
    46     3    43 1   
    47     4    44 1   
    48     5    45 1   
    49     8    46 1   
    50     8    47 1   
    51     8    48 1   
    52    11    49 1   
    53    12    50 1   
    54    13    51 1   
    55    13    52 1   
    56    15    53 1   
    57    16    54 1   
    58    17    55 1   
    59    18    56 1   
    60    19    57 1   
    61    20    58 1   
    62    21    59 1   
    63    25    60 1   
    64    25    61 1   
    65    28    62 1   
    66    28    63 1   
    67    28    64 1   
    68    29    65 1   
    69    29    66 1   
    70    29    67 1   
    71    30    68 1   
    72    33    69 1   
    73    34    70 1   
    74    34    71 1   
    75    37    72 1   
    76    38    73 1   
    77    39    74 1   
    78    40    75 1   
    79    41    76 1   
    80    41    77 1   
    81    41    78 1   
@<TRIPOS>SUBSTRUCTURE
     1 UNL         1 TEMP              0 ****  ****    0 ROOT
