@<TRIPOS>MOLECULE
LIGAND
   26    27     1     0     0
SMALL
No Charge or Current Charge


@<TRIPOS>ATOM
      1 N           79.3530     4.1940    30.7490 nh         1 UNL      -0.216200
      2 C           80.5860     4.5600    31.3310 ca         1 UNL       0.048100
      3 C1          81.6500     4.9890    30.5050 ca         1 UNL      -0.037900
      4 C2          80.7530     4.4920    32.7440 ca         1 UNL      -0.037900
      5 C3          82.8860     5.3510    31.0840 ca         1 UNL      -0.041600
      6 C4          81.9920     4.8590    33.3230 ca         1 UNL      -0.041600
      7 C5          83.0580     5.2860    32.4900 ca         1 UNL       0.041100
      8 Cl          84.5900     5.7290    33.1960 cl         1 UNL      -0.083500
      9 S           78.1280     5.4030    30.5050 sy         1 UNL       0.073700
     10 C6          78.3850     6.2750    28.8910 cc         1 UNL       0.129700
     11 O           76.8540     4.7400    30.4940 o          1 UNL      -0.149900
     12 O1          78.1750     6.3450    31.5770 o          1 UNL      -0.149900
     13 C7          78.5240     5.6870    27.6260 cd         1 UNL       0.126900
     14 C8          78.4760     7.6600    28.7280 cc         1 UNL      -0.027200
     15 S1          78.6950     6.7220    26.6810 ss         1 UNL      -0.088200
     16 C9          78.4980     4.2410    27.3070 c          1 UNL       0.394900
     17 C10         78.6700     7.9340    27.3780 cd         1 UNL      -0.021600
     18 O2          78.3240     3.3350    28.2630 o          1 UNL      -0.239900
     19 O3          78.6360     3.8840    26.1410 o          1 UNL      -0.239900
     20 H           79.1800     3.2170    30.4710 hn         1 UNL       0.173700
     21 H1          81.5170     5.0400    29.4240 ha         1 UNL       0.063700
     22 H2          79.9300     4.1590    33.3770 ha         1 UNL       0.063700
     23 H3          83.7090     5.6810    30.4500 ha         1 UNL       0.063300
     24 H4          82.1260     4.8140    34.4040 ha         1 UNL       0.063300
     25 H5          78.4070     8.4010    29.5240 ha         1 UNL       0.064300
     26 H6          78.7830     8.9250    26.9380 h4         1 UNL       0.069400
@<TRIPOS>BOND
     1     1     2 1   
     2     1     9 1   
     3     2     3 ar  
     4     2     4 ar  
     5     3     5 ar  
     6     4     6 ar  
     7     5     7 ar  
     8     6     7 ar  
     9     7     8 1   
    10     9    10 1   
    11     9    11 2   
    12     9    12 2   
    13    10    13 2   
    14    10    14 1   
    15    13    15 1   
    16    13    16 1   
    17    14    17 2   
    18    15    17 1   
    19    16    18 1   
    20    16    19 1   
    21     1    20 1   
    22     3    21 1   
    23     4    22 1   
    24     5    23 1   
    25     6    24 1   
    26    14    25 1   
    27    17    26 1   
@<TRIPOS>SUBSTRUCTURE
     1 UNL         1 TEMP              0 ****  ****    0 ROOT
