REMARK  7 active torsions:
REMARK  status: ('A' for Active; 'I' for Inactive)
REMARK    1  A    between atoms: N_7  and  C12_15 
REMARK    2  A    between atoms: C6_8  and  C9_11 
REMARK       I    between atoms: C9_11  and  N1_12 
REMARK    3  A    between atoms: N1_12  and  C10_13 
REMARK    4  A    between atoms: C10_13  and  C11_14 
REMARK    5  A    between atoms: C12_15  and  C13_16 
REMARK    6  A    between atoms: C17_20  and  C24_27 
REMARK    7  A    between atoms: C24_27  and  N2_28 
ROOT
ATOM      1  C   UNL d           3.902   9.710  25.819  0.00  0.00     0.003 A 
ATOM      2  C1  UNL d           5.019   8.944  25.454  0.00  0.00     0.030 A 
ATOM      3  C2  UNL d           5.324   8.711  24.082  0.00  0.00     0.046 A 
ATOM      4  C3  UNL d           4.565   9.243  23.041  0.00  0.00    -0.001 A 
ATOM      5  C4  UNL d           3.402  10.036  23.419  0.00  0.00    -0.049 A 
ATOM      6  C5  UNL d           3.089  10.241  24.790  0.00  0.00     0.007 A 
ATOM      7  N   UNL d           6.310   7.891  23.550  0.00  0.00    -0.337 N 
ATOM      8  C6  UNL d           6.179   7.963  22.171  0.00  0.00     0.104 A 
ATOM      9  C7  UNL d           5.102   8.859  21.794  0.00  0.00     0.049 A 
ATOM     10  C8  UNL d           2.556  10.666  22.388  0.00  0.00     0.049 C 
ENDROOT
BRANCH   7  11
ATOM     11  C12 UNL d           7.173   7.007  24.345  0.00  0.00     0.168 C 
BRANCH  11  12
ATOM     12  C13 UNL d           8.466   7.643  24.788  0.00  0.00    -0.039 A 
ATOM     13  C14 UNL d           9.152   8.653  24.080  0.00  0.00     0.009 A 
ATOM     14  C15 UNL d          10.443   9.043  24.485  0.00  0.00     0.002 A 
ATOM     15  C16 UNL d          11.008   8.427  25.619  0.00  0.00     0.015 A 
ATOM     16  C17 UNL d          10.273   7.469  26.356  0.00  0.00     0.007 A 
ATOM     17  C18 UNL d           9.009   7.082  25.934  0.00  0.00     0.024 A 
BRANCH  16  18
ATOM     18  C24 UNL d          10.742   6.855  27.586  0.00  0.00     0.102 C 
ATOM     19  N3  UNL d           9.822   6.206  28.289  0.00  0.00    -0.385 N 
ATOM     20  H18 UNL d          10.080   5.745  29.173  0.00  0.00     0.157 HD
ATOM     21  H19 UNL d           8.850   6.164  27.950  0.00  0.00     0.157 HD
BRANCH  18  22
ATOM     22  N2  UNL d          12.020   6.887  27.970  0.00  0.00    -0.385 N 
ATOM     23  H16 UNL d          12.304   6.437  28.852  0.00  0.00     0.157 HD
ATOM     24  H17 UNL d          12.722   7.362  27.385  0.00  0.00     0.157 HD
ENDBRANCH  18  22
ENDBRANCH  16  18
ENDBRANCH  11  12
ENDBRANCH   7  11
BRANCH   8  25
ATOM     25  C9  UNL d           6.971   7.233  21.247  0.00  0.00     0.268 C 
ATOM     26  N1  UNL d           6.430   6.910  20.047  0.00  0.00    -0.351 N 
ATOM     27  H7  UNL d           5.468   7.198  19.819  0.00  0.00     0.163 HD
ATOM     28  O   UNL d           8.118   6.882  21.536  0.00  0.00    -0.266 OA
BRANCH  26  29
ATOM     29  C10 UNL d           7.218   6.150  19.076  0.00  0.00     0.161 C 
BRANCH  29  30
ATOM     30  C11 UNL d           7.525   4.693  19.415  0.00  0.00    -0.037 A 
ATOM     31  C19 UNL d           8.483   3.996  18.662  0.00  0.00     0.032 A 
ATOM     32  C20 UNL d           8.718   2.624  18.849  0.00  0.00     0.036 A 
ATOM     33  C21 UNL d           7.985   1.940  19.833  0.00  0.00     0.047 A 
ATOM     34 Cl   UNL d           9.843   1.773  17.802  0.00  0.00    -0.084 Cl
ATOM     35  C22 UNL d           7.021   2.614  20.608  0.00  0.00     0.036 A 
ATOM     36  C23 UNL d           6.808   3.993  20.397  0.00  0.00     0.032 A 
ATOM     37 Cl1  UNL d           6.032   1.751  21.785  0.00  0.00    -0.084 Cl
ENDBRANCH  29  30
ENDBRANCH  26  29
ENDBRANCH   8  25
TORSDOF 7
