REMARK  2 active torsions:
REMARK  status: ('A' for Active; 'I' for Inactive)
REMARK    1  A    between atoms: C1_2  and  C10_11 
REMARK    2  A    between atoms: C10_11  and  C11_12 
ROOT
ATOM      1  C   UNL d          36.573  58.068  78.132  0.00  0.00    -0.019 A 
ATOM      2  C1  UNL d          36.467  58.415  76.781  0.00  0.00    -0.037 A 
ATOM      3  C2  UNL d          37.585  58.301  75.892  0.00  0.00     0.008 A 
ATOM      4  C3  UNL d          38.798  57.814  76.431  0.00  0.00     0.001 A 
ATOM      5  C4  UNL d          38.944  57.458  77.731  0.00  0.00     0.012 A 
ATOM      6  C5  UNL d          37.854  57.563  78.610  0.00  0.00    -0.025 A 
ATOM      7  C6  UNL d          37.929  57.189  79.997  0.00  0.00     0.012 A 
ATOM      8  C7  UNL d          36.837  57.336  80.831  0.00  0.00     0.001 A 
ATOM      9  C8  UNL d          35.596  57.810  80.368  0.00  0.00     0.001 A 
ATOM     10  C9  UNL d          35.449  58.188  79.053  0.00  0.00     0.013 A 
ENDROOT
BRANCH   2  11
ATOM     11  C10 UNL d          35.140  58.989  76.214  0.00  0.00     0.152 C 
BRANCH  11  12
ATOM     12  C11 UNL d          35.432  59.967  75.126  0.00  0.00     0.176 C 
ATOM     13  O   UNL d          35.633  61.243  75.328  0.00  0.00    -0.648 OA
ATOM     14  O1  UNL d          35.573  59.350  73.962  0.00  0.00    -0.648 OA
ENDBRANCH  11  12
ENDBRANCH   2  11
TORSDOF 2
