@<TRIPOS>MOLECULE
LIGAND
   57    60     1     0     0
SMALL
No Charge or Current Charge


@<TRIPOS>ATOM
      1 C           30.8150     6.8380     9.6380 c2         1 UNL      -0.067400
      2 C1          31.0790     7.5730     8.5640 ce         1 UNL      -0.018000
      3 C2          32.3500     8.3670     8.5490 c          1 UNL       0.178700
      4 C3          33.1920     8.3840     9.7900 ce         1 UNL      -0.014800
      5 C4          32.8600     7.6260    10.8320 c2         1 UNL      -0.053200
      6 C5          33.7450     7.7080    12.0400 c3         1 UNL      -0.030100
      7 C6          32.8990     8.0240    13.2700 c3         1 UNL      -0.043200
      8 C7          31.6540     7.1500    13.3840 c3         1 UNL       0.000300
      9 C8          30.8260     7.0610    12.1020 c3         1 UNL       0.152600
     10 C9          31.6650     6.7140    10.8710 c3         1 UNL       0.044300
     11 C10         29.4930     6.3260    12.2370 c3         1 UNL       0.091000
     12 C11         28.7280     6.5700    13.5340 c3         1 UNL      -0.015100
     13 C12         29.6260     6.4770    14.7670 c3         1 UNL       0.009600
     14 C13         30.7830     7.4620    14.5980 c3         1 UNL      -0.026300
     15 C14         31.3930     7.6320    15.9860 c3         1 UNL      -0.043600
     16 C15         30.2030     7.4630    16.9260 c3         1 UNL      -0.007100
     17 C16         29.0230     7.0530    16.0480 c3         1 UNL       0.134000
     18 C17         30.0650     5.0310    14.9890 c3         1 UNL      -0.056200
     19 C18         32.1830     5.2780    10.8610 c3         1 UNL      -0.049300
     20 C19         28.0530     6.1170    16.7520 c          1 UNL       0.190400
     21 C20         26.5460     6.3020    16.6910 c3         1 UNL       0.105200
     22 C21         30.0040     8.7080    17.7840 c3         1 UNL      -0.059400
     23 F           30.4060     8.3410    11.8910 f          1 UNL      -0.237700
     24 O           32.6900     8.9850     7.5430 o          1 UNL      -0.287900
     25 O1          29.7060     4.9240    12.1580 oh         1 UNL      -0.388600
     26 O2          28.3010     8.2390    15.7480 oh         1 UNL      -0.380200
     27 O3          28.4710     5.1550    17.3930 o          1 UNL      -0.291900
     28 O4          25.9300     5.1110    16.2250 oh         1 UNL      -0.387400
     29 H           29.8870     6.2660     9.6240 ha         1 UNL       0.058300
     30 H1          30.3920     7.5980     7.7180 ha         1 UNL       0.065300
     31 H2          34.0770     9.0180     9.8380 ha         1 UNL       0.065600
     32 H3          34.5450     8.4610    11.9350 hc         1 UNL       0.031000
     33 H4          34.2600     6.7400    12.1780 hc         1 UNL       0.031000
     34 H5          32.6010     9.0880    13.2210 hc         1 UNL       0.027200
     35 H6          33.5110     7.9270    14.1850 hc         1 UNL       0.027200
     36 H7          32.0690     6.1380    13.5580 hc         1 UNL       0.033600
     37 H8          28.8230     6.6180    11.4040 h1         1 UNL       0.062600
     38 H9          27.8860     5.8560    13.6000 hc         1 UNL       0.029700
     39 H10         28.2560     7.5660    13.4620 hc         1 UNL       0.029700
     40 H11         30.3330     8.4520    14.3700 hc         1 UNL       0.031100
     41 H12         31.9160     8.5960    16.0960 hc         1 UNL       0.027200
     42 H13         32.1500     6.8530    16.1790 hc         1 UNL       0.027200
     43 H14         30.4550     6.6510    17.6320 hc         1 UNL       0.033000
     44 H15         30.5950     4.8970    15.9480 hc         1 UNL       0.023600
     45 H16         29.1980     4.3480    15.0040 hc         1 UNL       0.023600
     46 H17         30.7630     4.6390    14.2360 hc         1 UNL       0.023600
     47 H18         32.6420     4.9590    11.8100 hc         1 UNL       0.024200
     48 H19         31.4190     4.5280    10.6020 hc         1 UNL       0.024200
     49 H20         32.9630     5.1680    10.0850 hc         1 UNL       0.024200
     50 H21         26.2310     7.1520    16.0690 h1         1 UNL       0.063700
     51 H22         26.2200     6.5040    17.7270 h1         1 UNL       0.063700
     52 H23         29.1110     8.6250    18.4270 hc         1 UNL       0.023300
     53 H24         30.8700     8.8410    18.4560 hc         1 UNL       0.023300
     54 H25         29.9120     9.6350    17.1960 hc         1 UNL       0.023300
     55 H26         28.7990     4.4420    12.0760 ho         1 UNL       0.209900
     56 H27         28.9370     9.0480    15.7890 ho         1 UNL       0.210800
     57 H28         24.9660     5.3170    15.9260 ho         1 UNL       0.210000
@<TRIPOS>BOND
     1     1     2 2   
     2     1    10 1   
     3     2     3 1   
     4     3     4 1   
     5     3    24 2   
     6     4     5 2   
     7     5     6 1   
     8     5    10 1   
     9     6     7 1   
    10     7     8 1   
    11     8     9 1   
    12     8    14 1   
    13     9    10 1   
    14     9    11 1   
    15     9    23 1   
    16    10    19 1   
    17    11    12 1   
    18    11    25 1   
    19    12    13 1   
    20    13    14 1   
    21    13    17 1   
    22    13    18 1   
    23    14    15 1   
    24    15    16 1   
    25    16    17 1   
    26    16    22 1   
    27    17    20 1   
    28    17    26 1   
    29    20    21 1   
    30    20    27 2   
    31    21    28 1   
    32     1    29 1   
    33     2    30 1   
    34     4    31 1   
    35     6    32 1   
    36     6    33 1   
    37     7    34 1   
    38     7    35 1   
    39     8    36 1   
    40    11    37 1   
    41    12    38 1   
    42    12    39 1   
    43    14    40 1   
    44    15    41 1   
    45    15    42 1   
    46    16    43 1   
    47    18    44 1   
    48    18    45 1   
    49    18    46 1   
    50    19    47 1   
    51    19    48 1   
    52    19    49 1   
    53    21    50 1   
    54    21    51 1   
    55    22    52 1   
    56    22    53 1   
    57    22    54 1   
    58    25    55 1   
    59    26    56 1   
    60    28    57 1   
@<TRIPOS>SUBSTRUCTURE
     1 UNL         1 TEMP              0 ****  ****    0 ROOT
