@<TRIPOS>MOLECULE
LIGAND
   42    43     1     0     0
SMALL
No Charge or Current Charge


@<TRIPOS>ATOM
      1 C           59.3120    58.3410    19.3710 c          1 UNL       0.343500
      2 C1          54.7000    56.3410    16.4550 c2         1 UNL      -0.080500
      3 C2          53.5780    55.6270    16.1980 c2         1 UNL      -0.075700
      4 C3          52.2620    56.2610    16.6280 c3         1 UNL      -0.021800
      5 C4          51.7040    55.5290    17.8560 c3         1 UNL       0.052800
      6 C5          52.4130    55.8800    19.1530 c          1 UNL       0.356300
      7 C6          58.7170    53.4560    19.8270 c3         1 UNL      -0.035800
      8 C7          55.6390    53.1440    18.3090 c3         1 UNL       0.078800
      9 C8          53.5640    54.2540    15.5130 c3         1 UNL      -0.043800
     10 C9          59.8890    56.3640    20.5390 c3         1 UNL       0.119100
     11 C10         58.9050    56.0110    19.4450 ca         1 UNL       0.013600
     12 C11         58.3470    54.7210    19.0860 ca         1 UNL      -0.001100
     13 C12         57.4160    54.6890    17.9740 ca         1 UNL       0.130300
     14 C13         57.0770    55.9100    17.2750 ca         1 UNL       0.040400
     15 C14         57.6550    57.1640    17.6720 ca         1 UNL       0.138100
     16 C15         58.5690    57.1830    18.7630 ca         1 UNL       0.107400
     17 C16         56.1070    55.8810    16.0990 c3         1 UNL      -0.002300
     18 O           59.3060    59.4970    19.0820 o          1 UNL      -0.244800
     19 O1          60.0360    57.8180    20.3650 os         1 UNL      -0.456300
     20 O2          56.8760    53.4790    17.6080 os         1 UNL      -0.494400
     21 O3          57.3140    58.3180    16.9870 oh         1 UNL      -0.505500
     22 O4          52.4010    57.0740    19.5360 o          1 UNL      -0.246400
     23 O5          52.9850    54.9590    19.7800 o          1 UNL      -0.246400
     24 H           54.5880    57.3070    16.9480 ha         1 UNL       0.057500
     25 H1          51.5370    56.2100    15.7980 hc         1 UNL       0.031500
     26 H2          52.4100    57.3280    16.8610 hc         1 UNL       0.031500
     27 H3          51.7100    54.4380    17.6970 hc         1 UNL       0.038200
     28 H4          50.6490    55.8270    17.9850 hc         1 UNL       0.038200
     29 H5          55.2600    52.2150    17.8680 h1         1 UNL       0.066000
     30 H6          55.8220    52.9980    19.3820 h1         1 UNL       0.066000
     31 H7          54.8930    53.9410    18.1860 h1         1 UNL       0.066000
     32 H8          52.6340    54.1300    14.9380 hc         1 UNL       0.027400
     33 H9          54.4020    54.1230    14.8190 hc         1 UNL       0.027400
     34 H10         53.5950    53.4440    16.2580 hc         1 UNL       0.027400
     35 H11         56.4990    56.5390    15.3020 hc         1 UNL       0.035800
     36 H12         56.0920    54.8740    15.6670 hc         1 UNL       0.035800
     37 H13         58.0380    59.0340    17.1380 ho         1 UNL       0.292200
     38 H14         57.9350    53.1810    20.5540 hc         1 UNL       0.027900
     39 H15         58.8440    52.6100    19.1340 hc         1 UNL       0.027900
     40 H16         59.6590    53.5780    20.3810 hc         1 UNL       0.027900
     41 H17         60.8710    55.8840    20.4180 h1         1 UNL       0.074900
     42 H18         59.5080    56.1580    21.5510 h1         1 UNL       0.074900
@<TRIPOS>BOND
     1     1    16 1   
     2     1    18 2   
     3     1    19 1   
     4     2     3 2   
     5     2    17 1   
     6     3     4 1   
     7     3     9 1   
     8     4     5 1   
     9     5     6 1   
    10     6    22 1   
    11     6    23 1   
    12     7    12 1   
    13     8    20 1   
    14    10    11 1   
    15    10    19 1   
    16    11    12 ar  
    17    11    16 ar  
    18    12    13 ar  
    19    13    14 ar  
    20    13    20 1   
    21    14    15 ar  
    22    14    17 1   
    23    15    16 ar  
    24    15    21 1   
    25     2    24 1   
    26     4    25 1   
    27     4    26 1   
    28     5    27 1   
    29     5    28 1   
    30     8    29 1   
    31     8    30 1   
    32     8    31 1   
    33     9    32 1   
    34     9    33 1   
    35     9    34 1   
    36    17    35 1   
    37    17    36 1   
    38    21    37 1   
    39     7    38 1   
    40     7    39 1   
    41     7    40 1   
    42    10    41 1   
    43    10    42 1   
@<TRIPOS>SUBSTRUCTURE
     1 UNL         1 TEMP              0 ****  ****    0 ROOT
