@<TRIPOS>MOLECULE
LIGAND
   69    72     1     0     0
SMALL
No Charge or Current Charge


@<TRIPOS>ATOM
      1 C           14.5970   135.5110    -4.6940 c3         1 UNL       0.071800
      2 C1          14.4290   134.0330    -4.0840 ca         1 UNL      -0.029000
      3 C2          16.1330   135.9440    -4.9550 c          1 UNL       0.225800
      4 C3          13.6970   135.5740    -6.0210 c3         1 UNL      -0.034900
      5 H           13.8260   136.5680    -6.4490 hc         1 UNL       0.027800
      6 H1          12.6650   135.3950    -5.7170 hc         1 UNL       0.027800
      7 C4          14.0150   136.6010    -3.6960 c3         1 UNL      -0.037800
      8 H2          12.9280   136.5410    -3.7400 hc         1 UNL       0.027600
      9 H3          14.3710   137.5760    -4.0280 hc         1 UNL       0.027600
     10 C5          15.5560   133.3530    -3.5590 ca         1 UNL      -0.015200
     11 H4          16.5230   133.8550    -3.5970 ha         1 UNL       0.065700
     12 C6          13.1740   133.3260    -4.0080 ca         1 UNL      -0.057400
     13 H5          12.2700   133.7980    -4.3920 ha         1 UNL       0.062100
     14 N           16.9250   135.2990    -5.9540 n          1 UNL      -0.303800
     15 O           16.6390   136.8580    -4.2700 o          1 UNL      -0.274600
     16 C7          13.9800   134.5780    -7.1700 c3         1 UNL      -0.050400
     17 H6          13.2470   134.7500    -7.9580 hc         1 UNL       0.026600
     18 H7          13.8900   133.5670    -6.7740 hc         1 UNL       0.026600
     19 C8          14.4070   136.4690    -2.2080 c3         1 UNL      -0.064000
     20 H8          13.9440   137.2740    -1.6370 hc         1 UNL       0.023000
     21 H9          14.0630   135.5080    -1.8250 hc         1 UNL       0.023000
     22 H10         15.4910   136.5320    -2.1100 hc         1 UNL       0.023000
     23 C9          15.4980   132.0440    -2.9810 ca         1 UNL       0.128800
     24 C10         13.0950   132.0150    -3.4370 ca         1 UNL      -0.058000
     25 H11         12.1340   131.5030    -3.3950 ha         1 UNL       0.061900
     26 C11         16.4980   134.2450    -6.8830 c3         1 UNL       0.014400
     27 H12         16.1340   133.3580    -6.3640 h1         1 UNL       0.046400
     28 H13         17.3080   133.9130    -7.5330 h1         1 UNL       0.046400
     29 C12         18.3160   135.7220    -6.1370 c3         1 UNL       0.003200
     30 H14         18.9580   135.1670    -5.4530 h1         1 UNL       0.042800
     31 H15         18.6240   135.5250    -7.1640 h1         1 UNL       0.042800
     32 H16         18.4020   136.7890    -5.9310 h1         1 UNL       0.042800
     33 C13         15.3690   134.7030    -7.7990 c3         1 UNL      -0.037100
     34 H17         15.6310   135.7230    -8.0810 hc         1 UNL       0.028000
     35 H18         15.4900   134.1180    -8.7110 hc         1 UNL       0.028000
     36 O1          16.6820   131.4310    -2.4750 os         1 UNL      -0.454700
     37 C14         14.2550   131.3730    -2.9240 ca         1 UNL      -0.019300
     38 H19         14.1870   130.3750    -2.4920 ha         1 UNL       0.065400
     39 C15         17.8320   132.2480    -2.3910 ca         1 UNL       0.145900
     40 C16         18.8010   132.3610    -3.4460 ca         1 UNL       0.093900
     41 C17         18.0070   132.9980    -1.1940 ca         1 UNL      -0.015900
     42 H20         17.2690   132.9060    -0.3970 ha         1 UNL       0.065700
     43 C18         19.9210   133.2120    -3.2750 ca         1 UNL      -0.040600
     44 H21         20.6630   133.2950    -4.0690 ha         1 UNL       0.063200
     45 C19         18.6250   131.7080    -4.7090 cg         1 UNL       0.102800
     46 C20         19.1270   133.8700    -1.0090 ca         1 UNL      -0.049800
     47 C21         20.0830   133.9570    -2.0780 ca         1 UNL      -0.058100
     48 H22         20.9500   134.6080    -1.9670 ha         1 UNL       0.062000
     49 N1          18.4220   131.2060    -5.7280 n1         1 UNL      -0.190700
     50 C22         19.3220   134.6930     0.2930 c3         1 UNL      -0.004800
     51 C23         19.3080   133.8390     1.5610 cc         1 UNL       0.030300
     52 C24         18.2190   135.7940     0.4250 c3         1 UNL      -0.066200
     53 H23         18.3760   136.3580     1.3450 hc         1 UNL       0.022300
     54 H24         18.2750   136.4690    -0.4290 hc         1 UNL       0.022300
     55 H25         17.2360   135.3230     0.4510 hc         1 UNL       0.022300
     56 N2          20.6330   135.3480     0.2530 n4         1 UNL       0.388000
     57 H26         20.7700   135.8960     1.1140 hn         1 UNL      -0.088200
     58 H27         21.3720   134.6340     0.1800 hn         1 UNL      -0.088200
     59 H28         20.6800   135.9740    -0.5630 hn         1 UNL      -0.088200
     60 N3          20.0940   132.7240     1.7930 na         1 UNL      -0.338100
     61 C25         18.5490   133.9460     2.7280 cd         1 UNL       0.047500
     62 H29         17.8100   134.7300     2.8930 h4         1 UNL       0.084700
     63 C26         19.7520   132.2710     3.0230 cc         1 UNL       0.095800
     64 H30         20.2130   131.3890     3.4680 h5         1 UNL       0.102900
     65 C27         21.1080   132.0520     0.9940 c3         1 UNL       0.012900
     66 H31         20.8870   132.1890    -0.0650 h1         1 UNL       0.045600
     67 H32         22.0870   132.4750     1.2180 h1         1 UNL       0.045600
     68 H33         21.1100   130.9880     1.2290 h1         1 UNL       0.045600
     69 N4          18.8250   132.9690     3.6430 nd         1 UNL      -0.243800
@<TRIPOS>BOND
     1     1     2 1   
     2     1     3 1   
     3     1     4 1   
     4     1     7 1   
     5     2    10 ar  
     6     2    12 ar  
     7     3    14 1   
     8     3    15 2   
     9     4    16 1   
    10     4     5 1   
    11     4     6 1   
    12     7    19 1   
    13     7     8 1   
    14     7     9 1   
    15    10    23 ar  
    16    10    11 1   
    17    12    24 ar  
    18    12    13 1   
    19    14    26 1   
    20    14    29 1   
    21    16    33 1   
    22    16    17 1   
    23    16    18 1   
    24    19    20 1   
    25    19    21 1   
    26    19    22 1   
    27    23    36 1   
    28    23    37 ar  
    29    24    37 ar  
    30    24    25 1   
    31    26    33 1   
    32    26    27 1   
    33    26    28 1   
    34    29    30 1   
    35    29    31 1   
    36    29    32 1   
    37    33    34 1   
    38    33    35 1   
    39    36    39 1   
    40    37    38 1   
    41    39    40 ar  
    42    39    41 ar  
    43    40    43 ar  
    44    40    45 1   
    45    41    46 ar  
    46    41    42 1   
    47    43    47 ar  
    48    43    44 1   
    49    45    49 3   
    50    46    47 ar  
    51    46    50 1   
    52    47    48 1   
    53    50    51 1   
    54    50    52 1   
    55    50    56 1   
    56    51    60 1   
    57    51    61 2   
    58    52    53 1   
    59    52    54 1   
    60    52    55 1   
    61    56    57 1   
    62    56    58 1   
    63    56    59 1   
    64    60    63 1   
    65    60    65 1   
    66    61    69 1   
    67    61    62 1   
    68    63    69 2   
    69    63    64 1   
    70    65    66 1   
    71    65    67 1   
    72    65    68 1   
@<TRIPOS>SUBSTRUCTURE
     1 UNL         1 TEMP              0 ****  ****    0 ROOT
