REMARK  3 active torsions:
REMARK  status: ('A' for Active; 'I' for Inactive)
REMARK       I    between atoms: N_3  and  C4_6 
REMARK    1  A    between atoms: C4_6  and  C5_7 
REMARK    2  A    between atoms: C5_7  and  C6_8 
REMARK    3  A    between atoms: C5_7  and  N1_11 
ROOT
ATOM      1  C5  UNL d          80.420  74.385  97.448  0.00  0.00     0.261 C 
ENDROOT
BRANCH   1   2
ATOM      2  C4  UNL d          81.800  74.363  97.953  0.00  0.00     0.384 C 
ATOM      3  N   UNL d          82.662  75.516  98.209  0.00  0.00     0.134 N 
ATOM      4  C1  UNL d          82.854  76.381  97.032  0.00  0.00     0.277 C 
ATOM      5  C2  UNL d          84.034  75.234  98.692  0.00  0.00     0.277 C 
ATOM      6  C   UNL d          84.189  77.213  97.348  0.00  0.00     0.032 C 
ATOM      7  C3  UNL d          84.632  76.660  98.776  0.00  0.00     0.032 C 
ATOM      8  O   UNL d          82.322  73.115  98.201  0.00  0.00    -0.186 OA
ENDBRANCH   1   2
BRANCH   1   9
ATOM      9  C6  UNL d          79.296  74.230  98.432  0.00  0.00     0.013 C 
ATOM     10  C7  UNL d          79.221  75.282  99.458  0.00  0.00     0.012 C 
ATOM     11  C8  UNL d          77.805  74.286  97.634  0.00  0.00     0.012 C 
ENDBRANCH   1   9
BRANCH   1  12
ATOM     12  N1  UNL d          80.215  73.353  96.379  0.00  0.00    -0.070 N 
ATOM     13  H13 UNL d          79.275  73.376  96.008  0.00  0.00     0.274 HD
ATOM     14  H14 UNL d          80.844  73.456  95.593  0.00  0.00     0.274 HD
ATOM     15  H15 UNL d          80.372  72.421  96.748  0.00  0.00     0.274 HD
ENDBRANCH   1  12
TORSDOF 3
