@<TRIPOS>MOLECULE
LIGAND
   21    20     1     0     0
SMALL
No Charge or Current Charge


@<TRIPOS>ATOM
      1 O           33.3200    33.2000    44.9730 o          1 UNL      -0.243400
      2 C           33.3260    34.2000    45.8110 c          1 UNL       0.384500
      3 O1          33.2480    35.3780    45.4420 o          1 UNL      -0.243400
      4 C1          33.4000    33.8580    47.3360 c3         1 UNL       0.162900
      5 H           33.9740    34.6500    47.8350 h1         1 UNL       0.071800
      6 O2          34.1460    32.6030    47.4910 oh         1 UNL      -0.379800
      7 H1          33.4910    31.8380    47.7050 ho         1 UNL       0.210500
      8 C2          31.9500    33.7180    47.9770 c3         1 UNL       0.024700
      9 C3          31.1660    35.0230    47.8550 c3         1 UNL      -0.054800
     10 H2          30.2160    34.9760    48.4120 hc         1 UNL       0.023700
     11 H3          31.7380    35.8830    48.2400 hc         1 UNL       0.023700
     12 H4          30.9150    35.2520    46.8050 hc         1 UNL       0.023700
     13 C4          31.1820    32.5830    47.3280 c3         1 UNL      -0.054800
     14 H5          30.1940    32.4520    47.7990 hc         1 UNL       0.023700
     15 H6          31.0000    32.7760    46.2570 hc         1 UNL       0.023700
     16 H7          31.7040    31.6160    47.3980 hc         1 UNL       0.023700
     17 C5          32.1890    33.4150    49.4770 c3         1 UNL       0.052200
     18 H8          32.7020    32.4460    49.6240 h1         1 UNL       0.056300
     19 H9          31.2380    33.3500    50.0270 h1         1 UNL       0.056300
     20 O3          32.9210    34.4570    50.1000 oh         1 UNL      -0.394400
     21 H10         33.8120    34.5960    49.6030 ho         1 UNL       0.209400
@<TRIPOS>BOND
     1     1     2 1   
     2     2     3 1   
     3     2     4 1   
     4     4     6 1   
     5     4     8 1   
     6     4     5 1   
     7     6     7 1   
     8     8     9 1   
     9     8    13 1   
    10     8    17 1   
    11     9    10 1   
    12     9    11 1   
    13     9    12 1   
    14    13    14 1   
    15    13    15 1   
    16    13    16 1   
    17    17    20 1   
    18    17    18 1   
    19    17    19 1   
    20    20    21 1   
@<TRIPOS>SUBSTRUCTURE
     1 UNL         1 TEMP              0 ****  ****    0 ROOT
