REMARK  3 active torsions:
REMARK  status: ('A' for Active; 'I' for Inactive)
REMARK    1  A    between atoms: C_3  and  C1_4 
REMARK    2  A    between atoms: C1_4  and  C2_5 
REMARK    3  A    between atoms: C2_5  and  C3_6 
ROOT
ATOM      1  N   UNL d          15.435  16.853  20.409  0.00  0.00    -0.338 N 
ATOM      2  H   UNL d          14.543  16.627  19.946  0.00  0.00     0.167 HD
ATOM      3  C   UNL d          16.590  17.076  19.806  0.00  0.00     0.105 A 
ATOM      4  N1  UNL d          17.490  17.322  20.605  0.00  0.00    -0.227 NA
ATOM      5  C5  UNL d          17.038  17.301  21.958  0.00  0.00     0.160 A 
ATOM      6  C6  UNL d          17.702  17.527  23.277  0.00  0.00     0.291 A 
ATOM      7  N2  UNL d          16.875  17.410  24.401  0.00  0.00    -0.262 N 
ATOM      8  H10 UNL d          17.290  17.558  25.332  0.00  0.00     0.190 HD
ATOM      9  N3  UNL d          15.412  17.079  24.315  0.00  0.00    -0.262 N 
ATOM     10  H11 UNL d          14.873  17.012  25.190  0.00  0.00     0.190 HD
ATOM     11  C7  UNL d          14.740  16.856  23.098  0.00  0.00     0.289 A 
ATOM     12  O   UNL d          13.508  16.576  23.010  0.00  0.00    -0.264 OA
ATOM     13  C8  UNL d          15.646  16.983  21.839  0.00  0.00     0.138 A 
ATOM     14  O1  UNL d          18.900  17.796  23.331  0.00  0.00    -0.264 OA
ENDROOT
BRANCH   3  15
ATOM     15  C1  UNL d          16.744  17.026  18.284  0.00  0.00     0.078 C 
BRANCH  15  16
ATOM     16  C2  UNL d          15.665  17.769  17.432  0.00  0.00     0.007 C 
BRANCH  16  17
ATOM     17  C3  UNL d          16.342  18.373  16.158  0.00  0.00    -0.004 C 
ATOM     18  C4  UNL d          15.343  19.117  15.238  0.00  0.00     0.005 C 
ENDBRANCH  16  17
ENDBRANCH  15  16
ENDBRANCH   3  15
TORSDOF 3
