@<TRIPOS>MOLECULE
LIGAND
   27    28     1     0     0
SMALL
No Charge or Current Charge


@<TRIPOS>ATOM
      1 N           15.4350    16.8530    20.4090 na         1 UNL      -0.337400
      2 H           14.5430    16.6270    19.9460 hn         1 UNL       0.167200
      3 C           16.5900    17.0760    19.8060 cc         1 UNL       0.108500
      4 C1          16.7440    17.0260    18.2840 c3         1 UNL       0.005400
      5 H1          16.7970    15.9750    17.9470 hc         1 UNL       0.034300
      6 H2          17.7400    17.4540    18.0930 hc         1 UNL       0.034300
      7 C2          15.6650    17.7690    17.4320 c3         1 UNL      -0.046500
      8 H3          15.2170    18.5990    18.0060 hc         1 UNL       0.026900
      9 H4          14.8410    17.0880    17.1590 hc         1 UNL       0.026900
     10 C3          16.3420    18.3730    16.1580 c3         1 UNL      -0.055500
     11 H5          16.8340    17.5650    15.5870 hc         1 UNL       0.026300
     12 H6          17.1380    19.0720    16.4730 hc         1 UNL       0.026300
     13 C4          15.3430    19.1170    15.2380 c3         1 UNL      -0.065300
     14 H7          15.8480    19.5340    14.3520 hc         1 UNL       0.023000
     15 H8          14.5510    18.4360    14.8870 hc         1 UNL       0.023000
     16 H9          14.8610    19.9490    15.7760 hc         1 UNL       0.023000
     17 N1          17.4900    17.3220    20.6050 nd         1 UNL      -0.226800
     18 C5          17.0380    17.3010    21.9580 cd         1 UNL       0.159800
     19 C6          17.7020    17.5270    23.2770 c          1 UNL       0.290800
     20 N2          16.8750    17.4100    24.4010 n          1 UNL      -0.261500
     21 H10         17.2900    17.5580    25.3320 hn         1 UNL       0.190100
     22 N3          15.4120    17.0790    24.3150 n          1 UNL      -0.261500
     23 H11         14.8730    17.0120    25.1900 hn         1 UNL       0.190100
     24 C7          14.7400    16.8560    23.0980 c          1 UNL       0.288800
     25 O           13.5080    16.5760    23.0100 o          1 UNL      -0.264200
     26 C8          15.6460    16.9830    21.8390 cc         1 UNL       0.138100
     27 O1          18.9000    17.7960    23.3310 o          1 UNL      -0.264100
@<TRIPOS>BOND
     1     1     3 1   
     2     1    26 1   
     3     1     2 1   
     4     3     4 1   
     5     3    17 2   
     6     4     7 1   
     7     4     5 1   
     8     4     6 1   
     9     7    10 1   
    10     7     8 1   
    11     7     9 1   
    12    10    13 1   
    13    10    11 1   
    14    10    12 1   
    15    13    14 1   
    16    13    15 1   
    17    13    16 1   
    18    17    18 1   
    19    18    19 1   
    20    18    26 2   
    21    19    20 1   
    22    19    27 2   
    23    20    22 1   
    24    20    21 1   
    25    22    24 1   
    26    22    23 1   
    27    24    25 2   
    28    24    26 1   
@<TRIPOS>SUBSTRUCTURE
     1 UNL         1 TEMP              0 ****  ****    0 ROOT
