REMARK  5 active torsions:
REMARK  status: ('A' for Active; 'I' for Inactive)
REMARK    1  A    between atoms: N1_6  and  C3_9 
REMARK    2  A    between atoms: C10_16  and  O2_17 
REMARK    3  A    between atoms: O2_17  and  C11_18 
REMARK    4  A    between atoms: C14_21  and  C15_22 
REMARK    5  A    between atoms: C18_25  and  O3_27 
ROOT
ATOM      1  C3  UNL d          19.299   5.407   4.443  0.00  0.00     0.065 A 
ATOM      2  C4  UNL d          20.493   6.176   4.753  0.00  0.00     0.041 A 
ATOM      3  C5  UNL d          20.859   7.233   3.877  0.00  0.00    -0.025 A 
ATOM      4  C6  UNL d          22.040   8.059   4.115  0.00  0.00     0.051 C 
ATOM      5  C7  UNL d          18.553   5.719   3.321  0.00  0.00     0.041 A 
ATOM      6  C8  UNL d          18.956   6.702   2.397  0.00  0.00    -0.025 A 
ATOM      7  C9  UNL d          18.088   7.020   1.162  0.00  0.00     0.051 C 
ATOM      8  C10 UNL d          20.103   7.482   2.696  0.00  0.00     0.088 A 
ENDROOT
BRANCH   8   9
ATOM      9  O2  UNL d          20.380   8.504   1.813  0.00  0.00    -0.310 OA
BRANCH   9  10
ATOM     10  C11 UNL d          21.419   8.339   0.910  0.00  0.00     0.076 A 
ATOM     11  C12 UNL d          21.680   7.075   0.261  0.00  0.00     0.040 A 
ATOM     12  C19 UNL d          22.756   7.045  -0.637  0.00  0.00     0.040 A 
ATOM     13  C18 UNL d          23.583   8.175  -0.855  0.00  0.00     0.072 A 
ATOM     14  C14 UNL d          23.295   9.425  -0.257  0.00  0.00    -0.019 A 
ATOM     15  C13 UNL d          22.220   9.512   0.664  0.00  0.00     0.047 A 
BRANCH  13  16
ATOM     16  O3  UNL d          24.637   8.036  -1.731  0.00  0.00    -0.360 OA
ATOM     17  H19 UNL d          24.802   8.930  -2.215  0.00  0.00     0.217 HD
ENDBRANCH  13  16
BRANCH  14  18
ATOM     18  C15 UNL d          24.211  10.646  -0.504  0.00  0.00     0.013 C 
ATOM     19  C16 UNL d          23.293  11.889  -0.716  0.00  0.00     0.015 C 
ATOM     20  C17 UNL d          25.097  10.780   0.760  0.00  0.00     0.015 C 
ENDBRANCH  14  18
ENDBRANCH   9  10
ENDBRANCH   8   9
BRANCH   1  21
ATOM     21  N1  UNL d          19.023   4.410   5.400  0.00  0.00    -0.181 N 
ATOM     22  C   UNL d          18.023   4.377   6.268  0.00  0.00     0.372 A 
ATOM     23  O   UNL d          17.223   5.255   6.139  0.00  0.00    -0.242 OA
ATOM     24  N   UNL d          17.977   3.356   7.189  0.00  0.00    -0.151 NA
ATOM     25  C1  UNL d          18.947   2.397   7.246  0.00  0.00     0.290 A 
ATOM     26  O1  UNL d          18.955   1.489   8.047  0.00  0.00    -0.264 OA
ATOM     27  C2  UNL d          20.019   2.446   6.252  0.00  0.00     0.215 A 
ATOM     28  N2  UNL d          20.032   3.413   5.406  0.00  0.00    -0.170 NA
ENDBRANCH   1  21
TORSDOF 5
