REMARK  4 active torsions:
REMARK  status: ('A' for Active; 'I' for Inactive)
REMARK    1  A    between atoms: O_1  and  C5_15 
REMARK    2  A    between atoms: O1_3  and  C1_11 
REMARK    3  A    between atoms: N_7  and  C3_13 
REMARK    4  A    between atoms: C_10  and  C5_15 
ROOT
ATOM      1  C   UNL d          17.498  20.608   8.628  0.00  0.00     0.044 C 
ATOM      2  C1  UNL d          17.860  19.615   9.759  0.00  0.00     0.127 C 
ATOM      3  C2  UNL d          19.149  20.177  10.389  0.00  0.00     0.064 C 
ATOM      4  C3  UNL d          19.917  20.858   9.226  0.00  0.00     0.048 A 
ATOM      5  C4  UNL d          18.863  21.110   8.072  0.00  0.00     0.025 A 
ATOM      6  C7  UNL d          20.042  20.230   7.784  0.00  0.00     0.039 A 
ENDROOT
BRANCH   4   7
ATOM      7  N   UNL d          20.831  21.998   9.508  0.00  0.00    -0.299 N 
ATOM      8  C6  UNL d          22.155  21.786   9.452  0.00  0.00     0.330 A 
ATOM      9  O2  UNL d          22.607  20.667   9.195  0.00  0.00    -0.246 OA
ATOM     10  N1  UNL d          23.010  22.774   9.667  0.00  0.00    -0.275 N 
ATOM     11  C8  UNL d          22.615  24.014   9.955  0.00  0.00     0.256 A 
ATOM     12  H2  UNL d          24.019  22.577   9.610  0.00  0.00     0.173 HD
ATOM     13  O3  UNL d          23.417  24.912  10.150  0.00  0.00    -0.267 OA
ATOM     14  C9  UNL d          21.155  24.298  10.041  0.00  0.00     0.022 A 
ATOM     15  C10 UNL d          20.332  23.221   9.798  0.00  0.00     0.109 A 
ATOM     16  C11 UNL d          20.649  25.689  10.374  0.00  0.00     0.056 C 
ENDBRANCH   4   7
BRANCH   2  17
ATOM     17  O1  UNL d          18.044  18.264   9.260  0.00  0.00    -0.395 OA
ATOM     18  H1  UNL d          17.184  17.952   8.786  0.00  0.00     0.210 HD
ENDBRANCH   2  17
BRANCH   1  19
ATOM     19  C5  UNL d          16.539  21.759   9.036  0.00  0.00     0.171 C 
BRANCH  19  20
ATOM     20  O   UNL d          17.144  22.553  10.049  0.00  0.00    -0.400 OA
ATOM     21  H   UNL d          17.832  23.189   9.622  0.00  0.00     0.209 HD
ENDBRANCH  19  20
ENDBRANCH   1  19
TORSDOF 4
