@<TRIPOS>MOLECULE
LIGAND
   45    48     1     0     0
SMALL
No Charge or Current Charge


@<TRIPOS>ATOM
      1 O           49.9800    11.0930    14.9440 oh         1 UNL      -0.390400
      2 H           49.5190    11.4290    15.8010 ho         1 UNL       0.209800
      3 C           49.5960    11.8940    13.8620 c3         1 UNL       0.069300
      4 H1          48.7430    11.4280    13.3370 h1         1 UNL       0.060700
      5 H2          50.4410    11.9190    13.1590 h1         1 UNL       0.060700
      6 C1          49.2210    13.3090    14.2740 ca         1 UNL      -0.020400
      7 C2          50.1470    14.3930    14.0730 ca         1 UNL      -0.056300
      8 H3          51.1180    14.1990    13.6180 ha         1 UNL       0.062100
      9 C3          49.8040    15.7040    14.4610 ca         1 UNL      -0.059700
     10 H4          50.5120    16.5180    14.3020 ha         1 UNL       0.061800
     11 C4          48.5350    15.9740    15.0610 ca         1 UNL      -0.040500
     12 H5          48.2760    16.9890    15.3630 ha         1 UNL       0.063600
     13 C5          47.6040    14.9030    15.2640 ca         1 UNL       0.033900
     14 N           46.3300    15.0460    15.8740 nh         1 UNL      -0.283600
     15 H6          45.6510    14.2950    15.6860 hn         1 UNL       0.155000
     16 C6          45.8970    16.0610    16.6810 ca         1 UNL       0.221400
     17 N1          44.6140    15.9020    17.1770 nb         1 UNL      -0.221900
     18 C7          44.1550    16.8600    18.0020 ca         1 UNL       0.041800
     19 H7          43.1460    16.7610    18.4020 h4         1 UNL       0.083800
     20 C8          44.9250    17.9970    18.3770 ca         1 UNL       0.036500
     21 C9          44.4520    19.0260    19.2590 cc         1 UNL      -0.036600
     22 H8          43.4490    18.9560    19.6800 ha         1 UNL       0.063300
     23 C10         45.2430    20.0910    19.5760 cd         1 UNL       0.050200
     24 C11         46.6220    20.2330    18.9780 c          1 UNL       0.260400
     25 O1          47.4050    21.1590    19.1990 o          1 UNL      -0.267000
     26 N2          47.0620    19.1770    18.1030 n          1 UNL      -0.295300
     27 C12         46.2420    18.0920    17.7880 ca         1 UNL       0.148200
     28 N3          46.7060    17.1150    16.9680 nb         1 UNL      -0.196100
     29 C13         48.4070    19.2460    17.4790 c3         1 UNL       0.016700
     30 H9          48.9840    20.0860    17.8810 h1         1 UNL       0.045700
     31 H10         48.9890    18.3310    17.6770 h1         1 UNL       0.045700
     32 H11         48.3350    19.3800    16.3870 h1         1 UNL       0.045700
     33 C14         44.7990    21.1600    20.4950 ca         1 UNL       0.023900
     34 C15         44.2640    22.3890    20.0170 ca         1 UNL       0.050200
     35 Cl          44.0600    22.6440    18.2990 cl         1 UNL      -0.082900
     36 C16         43.8570    23.4190    20.9290 ca         1 UNL      -0.042700
     37 H12         43.4270    24.3450    20.5480 ha         1 UNL       0.063200
     38 C17         44.0140    23.2320    22.3330 ca         1 UNL      -0.059000
     39 H13         43.7280    24.0280    23.0210 ha         1 UNL       0.061800
     40 C18         44.5430    22.0100    22.8440 ca         1 UNL      -0.042700
     41 H14         44.6400    21.8510    23.9180 ha         1 UNL       0.063200
     42 C19         44.9430    20.9980    21.9160 ca         1 UNL       0.050200
     43 Cl1         45.5840    19.5110    22.5540 cl         1 UNL      -0.082900
     44 C20         47.9620    13.5700    14.8660 ca         1 UNL      -0.035100
     45 H15         47.2580    12.7520    15.0210 ha         1 UNL       0.063900
@<TRIPOS>BOND
     1     1     3 1   
     2     1     2 1   
     3     3     6 1   
     4     3     4 1   
     5     3     5 1   
     6     6     7 ar  
     7     6    44 ar  
     8     7     9 ar  
     9     7     8 1   
    10     9    11 ar  
    11     9    10 1   
    12    11    13 ar  
    13    11    12 1   
    14    13    14 1   
    15    13    44 ar  
    16    14    16 1   
    17    14    15 1   
    18    16    17 ar  
    19    16    28 ar  
    20    17    18 ar  
    21    18    20 ar  
    22    18    19 1   
    23    20    21 1   
    24    20    27 ar  
    25    21    23 2   
    26    21    22 1   
    27    23    24 1   
    28    23    33 1   
    29    24    25 2   
    30    24    26 1   
    31    26    27 1   
    32    26    29 1   
    33    27    28 ar  
    34    29    30 1   
    35    29    31 1   
    36    29    32 1   
    37    33    34 ar  
    38    33    42 ar  
    39    34    35 1   
    40    34    36 ar  
    41    36    38 ar  
    42    36    37 1   
    43    38    40 ar  
    44    38    39 1   
    45    40    42 ar  
    46    40    41 1   
    47    42    43 1   
    48    44    45 1   
@<TRIPOS>SUBSTRUCTURE
     1 UNL         1 TEMP              0 ****  ****    0 ROOT
