REMARK  4 active torsions:
REMARK  status: ('A' for Active; 'I' for Inactive)
REMARK    1  A    between atoms: C_4  and  N1_5 
REMARK    2  A    between atoms: C_4  and  C1_8 
REMARK    3  A    between atoms: C6_13  and  C11_18 
REMARK       I    between atoms: C11_18  and  N2_20 
REMARK    4  A    between atoms: N2_20  and  C12_22 
ROOT
ATOM      1  C1  UNL d          19.186  18.715  33.577  0.00  0.00     0.008 A 
ATOM      2  C2  UNL d          18.916  17.669  32.620  0.00  0.00     0.016 A 
ATOM      3  C3  UNL d          19.770  16.585  32.274  0.00  0.00     0.013 A 
ATOM      4  C4  UNL d          21.035  16.547  32.908  0.00  0.00    -0.025 A 
ATOM      5  C5  UNL d          21.980  15.586  32.570  0.00  0.00     0.029 A 
ATOM      6  C6  UNL d          23.319  15.560  33.102  0.00  0.00     0.033 A 
ATOM      7  C7  UNL d          23.542  16.687  34.025  0.00  0.00     0.018 A 
ATOM      8  C8  UNL d          22.657  17.679  34.391  0.00  0.00     0.013 A 
ATOM      9  C9  UNL d          21.413  17.594  33.838  0.00  0.00    -0.025 A 
ATOM     10  C10 UNL d          20.512  18.588  34.119  0.00  0.00     0.027 A 
ENDROOT
BRANCH   6  11
ATOM     11  C11 UNL d          24.342  14.575  32.780  0.00  0.00     0.256 C 
ATOM     12  O   UNL d          25.179  14.333  33.642  0.00  0.00    -0.267 OA
ATOM     13  N2  UNL d          24.397  14.185  31.466  0.00  0.00    -0.323 N 
ATOM     14  H10 UNL d          23.685  14.540  30.812  0.00  0.00     0.169 HD
BRANCH  13  15
ATOM     15  C12 UNL d          25.372  13.334  30.991  0.00  0.00     0.035 A 
ATOM     16  C13 UNL d          25.821  13.700  29.718  0.00  0.00     0.029 A 
ATOM     17  C14 UNL d          26.749  12.894  29.058  0.00  0.00     0.002 A 
ATOM     18  C15 UNL d          27.265  11.753  29.748  0.00  0.00     0.000 A 
ATOM     19  C16 UNL d          26.900  11.427  31.052  0.00  0.00     0.002 A 
ATOM     20  C17 UNL d          25.943  12.234  31.688  0.00  0.00     0.029 A 
ENDBRANCH  13  15
ENDBRANCH   6  11
BRANCH   1  21
ATOM     21  C   UNL d          18.219  19.791  33.958  0.00  0.00     0.102 C 
ATOM     22  N   UNL d          16.910  19.481  33.750  0.00  0.00    -0.385 N 
ATOM     23  H   UNL d          16.653  18.556  33.377  0.00  0.00     0.157 HD
ATOM     24  H1  UNL d          16.177  20.172  33.965  0.00  0.00     0.157 HD
BRANCH  21  25
ATOM     25  N1  UNL d          18.664  20.989  34.448  0.00  0.00    -0.385 N 
ATOM     26  H2  UNL d          19.673  21.149  34.578  0.00  0.00     0.157 HD
ATOM     27  H3  UNL d          17.990  21.730  34.687  0.00  0.00     0.157 HD
ENDBRANCH  21  25
ENDBRANCH   1  21
TORSDOF 4
