@<TRIPOS>MOLECULE
LIGAND
   38    40     1     0     0
SMALL
No Charge or Current Charge


@<TRIPOS>ATOM
      1 N           16.9100    19.4810    33.7500 nh         1 UNL      -0.288400
      2 H           16.6530    18.5560    33.3770 hn         1 UNL       0.300900
      3 H1          16.1770    20.1720    33.9650 hn         1 UNL       0.300900
      4 C           18.2190    19.7910    33.9580 ce         1 UNL       0.266200
      5 N1          18.6640    20.9890    34.4480 nh         1 UNL      -0.249700
      6 H2          19.6730    21.1490    34.5780 hn         1 UNL       0.288300
      7 H3          17.9900    21.7300    34.6870 hn         1 UNL       0.288300
      8 C1          19.1860    18.7150    33.5770 ca         1 UNL       0.061400
      9 C2          18.9160    17.6690    32.6200 ca         1 UNL      -0.046400
     10 H4          17.9550    17.7140    32.1080 ha         1 UNL       0.062600
     11 C3          19.7700    16.5850    32.2740 ca         1 UNL      -0.053200
     12 H5          19.4660    15.8220    31.5570 ha         1 UNL       0.062400
     13 C4          21.0350    16.5470    32.9080 ca         1 UNL      -0.017100
     14 C5          21.9800    15.5860    32.5700 ca         1 UNL      -0.041900
     15 H6          21.6920    14.8080    31.8630 ha         1 UNL       0.063100
     16 C6          23.3190    15.5600    33.1020 ca         1 UNL       0.037600
     17 C7          23.5420    16.6870    34.0250 ca         1 UNL      -0.049000
     18 H7          24.5330    16.7440    34.4760 ha         1 UNL       0.062500
     19 C8          22.6570    17.6790    34.3910 ca         1 UNL      -0.053300
     20 H8          22.9330    18.4790    35.0780 ha         1 UNL       0.062400
     21 C9          21.4130    17.5940    33.8380 ca         1 UNL      -0.017000
     22 C10         20.5120    18.5880    34.1190 ca         1 UNL      -0.039300
     23 H9          20.8320    19.3570    34.8220 ha         1 UNL       0.063200
     24 C11         24.3420    14.5750    32.7800 c          1 UNL       0.248300
     25 O           25.1790    14.3330    33.6420 o          1 UNL      -0.269900
     26 N2          24.3970    14.1850    31.4660 n          1 UNL      -0.281500
     27 H10         23.6850    14.5400    30.8120 hn         1 UNL       0.155100
     28 C12         25.3720    13.3340    30.9910 ca         1 UNL       0.033700
     29 C13         25.8210    13.7000    29.7180 ca         1 UNL      -0.040500
     30 H11         25.4480    14.6090    29.2450 ha         1 UNL       0.063600
     31 C14         26.7490    12.8940    29.0580 ca         1 UNL      -0.060000
     32 H12         27.0720    13.1280    28.0440 ha         1 UNL       0.061800
     33 C15         27.2650    11.7530    29.7480 ca         1 UNL      -0.061600
     34 H13         27.9760    11.1090    29.2300 ha         1 UNL       0.061800
     35 C16         26.9000    11.4270    31.0520 ca         1 UNL      -0.060000
     36 H14         27.3430    10.5720    31.5630 ha         1 UNL       0.061800
     37 C17         25.9430    12.2340    31.6880 ca         1 UNL      -0.040500
     38 H15         25.6390    12.0180    32.7120 ha         1 UNL       0.063600
@<TRIPOS>BOND
     1     1     4 2   
     2     1     2 1   
     3     1     3 1   
     4     4     5 1   
     5     4     8 1   
     6     5     6 1   
     7     5     7 1   
     8     8     9 ar  
     9     8    22 ar  
    10     9    11 ar  
    11     9    10 1   
    12    11    13 ar  
    13    11    12 1   
    14    13    14 ar  
    15    13    21 ar  
    16    14    16 ar  
    17    14    15 1   
    18    16    17 ar  
    19    16    24 1   
    20    17    19 ar  
    21    17    18 1   
    22    19    21 ar  
    23    19    20 1   
    24    21    22 ar  
    25    22    23 1   
    26    24    25 2   
    27    24    26 1   
    28    26    28 1   
    29    26    27 1   
    30    28    29 ar  
    31    28    37 ar  
    32    29    31 ar  
    33    29    30 1   
    34    31    33 ar  
    35    31    32 1   
    36    33    35 ar  
    37    33    34 1   
    38    35    37 ar  
    39    35    36 1   
    40    37    38 1   
@<TRIPOS>SUBSTRUCTURE
     1 UNL         1 TEMP              0 ****  ****    0 ROOT
