@<TRIPOS>MOLECULE
LIGAND
   54    58     1     0     0
SMALL
No Charge or Current Charge


@<TRIPOS>ATOM
      1 O           16.6950   -12.8160    22.7290 o          1 UNL      -0.274800
      2 C           17.4090   -12.5450    21.7800 c          1 UNL       0.227800
      3 N           18.5310   -13.3290    21.4300 n          1 UNL      -0.237200
      4 C1          18.8670   -14.5430    22.1730 c3         1 UNL       0.047400
      5 H           19.3560   -15.2470    21.4830 h1         1 UNL       0.051900
      6 H1          17.9460   -15.0350    22.5210 h1         1 UNL       0.051900
      7 C2          19.7880   -14.2110    23.3150 ca         1 UNL      -0.029400
      8 C3          19.2510   -14.0800    24.6100 ca         1 UNL      -0.054300
      9 H2          18.1800   -14.1910    24.7760 ha         1 UNL       0.062200
     10 C4          20.1060   -13.8060    25.6770 ca         1 UNL      -0.026100
     11 H3          19.7190   -13.7030    26.6910 ha         1 UNL       0.064600
     12 C5          21.4750   -13.6670    25.4130 ca         1 UNL       0.123400
     13 F           22.2470   -13.4240    26.4870 f          1 UNL      -0.205500
     14 C6          22.0580   -13.7740    24.1420 ca         1 UNL      -0.026100
     15 H4          23.1300   -13.6500    23.9880 ha         1 UNL       0.064600
     16 C7          21.1740   -14.0520    23.0690 ca         1 UNL      -0.054300
     17 H5          21.5610   -14.1430    22.0540 ha         1 UNL       0.062200
     18 C8          19.0640   -12.9060    20.1780 c          1 UNL       0.227500
     19 O1          20.0420   -13.3920    19.6320 o          1 UNL      -0.274800
     20 C9          18.2450   -11.8120    19.6630 c3         1 UNL       0.064500
     21 H6          18.9070   -10.9950    19.3440 hc         1 UNL       0.041800
     22 C10         17.2170   -12.1980    18.6000 c3         1 UNL       0.022900
     23 H7          17.4860   -13.2530    18.3500 h1         1 UNL       0.047000
     24 N1          15.7990   -12.4400    19.1400 n3         1 UNL      -0.291000
     25 C11         14.9690   -11.9970    17.9830 c3         1 UNL      -0.000200
     26 H8          14.6680   -10.9370    18.0320 h1         1 UNL       0.042700
     27 H9          14.0390   -12.5820    17.9340 h1         1 UNL       0.042700
     28 C12         15.8910   -12.1930    16.7360 c3         1 UNL      -0.038700
     29 H10         15.4930   -11.6890    15.8420 hc         1 UNL       0.027800
     30 H11         15.9610   -13.2690    16.4890 hc         1 UNL       0.027800
     31 C13         17.2510   -11.6720    17.2230 c3         1 UNL      -0.035400
     32 H12         18.1260   -12.0170    16.6480 hc         1 UNL       0.028100
     33 H13         17.2470   -10.5690    17.1740 hc         1 UNL       0.028100
     34 C14         15.8630   -11.3370    20.1940 c3         1 UNL       0.047700
     35 H14         15.9300   -10.3660    19.6540 h1         1 UNL       0.052000
     36 C15         14.6700   -11.2040    21.0920 ca         1 UNL      -0.029500
     37 C16         13.9280   -12.3500    21.3610 ca         1 UNL      -0.056200
     38 H15         14.1930   -13.2940    20.8850 ha         1 UNL       0.062100
     39 C17         12.8510   -12.2910    22.2350 ca         1 UNL      -0.046700
     40 H16         12.2660   -13.1840    22.4560 ha         1 UNL       0.062600
     41 C18         12.5240   -11.0440    22.8370 ca         1 UNL       0.060800
     42 C19         13.2700    -9.8900    22.5730 ca         1 UNL      -0.046700
     43 H17         13.0070    -8.9440    23.0470 ha         1 UNL       0.062600
     44 C20         14.3560    -9.9610    21.6950 ca         1 UNL      -0.056200
     45 H18         14.9510    -9.0740    21.4780 ha         1 UNL       0.062100
     46 C21         11.3830   -11.0010    23.7370 ce         1 UNL       0.266200
     47 N2          10.5520   -12.0640    23.8870 nh         1 UNL      -0.288400
     48 H19          9.7510   -12.0050    24.5320 hn         1 UNL       0.300900
     49 H20         10.7220   -12.9300    23.3560 hn         1 UNL       0.300900
     50 N3          11.0790    -9.9100    24.4850 nh         1 UNL      -0.249700
     51 H21         10.2600    -9.9260    25.1090 hn         1 UNL       0.288300
     52 H22         11.6680    -9.0670    24.4280 hn         1 UNL       0.288300
     53 C22         17.2470   -11.4430    20.8070 c3         1 UNL       0.068300
     54 H23         17.5100   -10.5200    21.3510 hc         1 UNL       0.042100
@<TRIPOS>BOND
     1     1     2 2   
     2     2     3 1   
     3     2    53 1   
     4     3     4 1   
     5     3    18 1   
     6     4     7 1   
     7     4     5 1   
     8     4     6 1   
     9     7     8 ar  
    10     7    16 ar  
    11     8    10 ar  
    12     8     9 1   
    13    10    12 ar  
    14    10    11 1   
    15    12    13 1   
    16    12    14 ar  
    17    14    16 ar  
    18    14    15 1   
    19    16    17 1   
    20    18    19 2   
    21    18    20 1   
    22    20    22 1   
    23    20    53 1   
    24    20    21 1   
    25    22    24 1   
    26    22    31 1   
    27    22    23 1   
    28    24    25 1   
    29    24    34 1   
    30    25    28 1   
    31    25    26 1   
    32    25    27 1   
    33    28    31 1   
    34    28    29 1   
    35    28    30 1   
    36    31    32 1   
    37    31    33 1   
    38    34    36 1   
    39    34    53 1   
    40    34    35 1   
    41    36    37 ar  
    42    36    44 ar  
    43    37    39 ar  
    44    37    38 1   
    45    39    41 ar  
    46    39    40 1   
    47    41    42 ar  
    48    41    46 1   
    49    42    44 ar  
    50    42    43 1   
    51    44    45 1   
    52    46    47 2   
    53    46    50 1   
    54    47    48 1   
    55    47    49 1   
    56    50    51 1   
    57    50    52 1   
    58    53    54 1   
@<TRIPOS>SUBSTRUCTURE
     1 UNL         1 TEMP              0 ****  ****    0 ROOT
