@<TRIPOS>MOLECULE
LIGAND
   29    30     1     0     0
SMALL
No Charge or Current Charge


@<TRIPOS>ATOM
      1 O           69.9710    38.0950    20.6110 oh         1 UNL      -0.392400
      2 H           70.4080    39.0250    20.6750 ho         1 UNL       0.209500
      3 C           70.2680    37.3460    21.7920 c3         1 UNL       0.073100
      4 H1          69.4400    37.4280    22.5170 h1         1 UNL       0.058400
      5 H2          71.1800    37.7430    22.2680 h1         1 UNL       0.058400
      6 C1          70.4670    35.8600    21.3710 c3         1 UNL       0.115900
      7 H3          70.8300    35.2880    22.2390 h1         1 UNL       0.064800
      8 O1          69.1490    35.3280    21.0460 os         1 UNL      -0.342200
      9 C2          69.2100    34.4730    19.9010 c3         1 UNL       0.205500
     10 H4          69.4650    33.4630    20.2620 h2         1 UNL       0.090200
     11 N           67.9220    34.4220    19.1610 n          1 UNL      -0.267000
     12 C3          67.1460    35.4720    18.9970 cc         1 UNL       0.015300
     13 H5          67.5410    36.4650    19.2120 h4         1 UNL       0.081200
     14 C4          65.9110    35.3510    18.5820 cd         1 UNL      -0.005600
     15 H6          65.2540    36.2200    18.5880 ha         1 UNL       0.066600
     16 C5          65.4560    34.2010    18.1600 cd         1 UNL       0.123000
     17 N1          66.2500    33.1260    18.1940 nc         1 UNL      -0.178300
     18 C6          67.4980    33.2220    18.6960 c          1 UNL       0.352300
     19 O2          68.2730    32.1280    18.7270 o          1 UNL      -0.244400
     20 N2          64.2250    34.0320    17.6390 nh         1 UNL      -0.343000
     21 H7          63.9230    33.0990    17.3230 hn         1 UNL       0.143700
     22 H8          63.5860    34.8360    17.5570 hn         1 UNL       0.143700
     23 C7          70.3860    35.0840    19.0980 c3         1 UNL       0.320700
     24 F           69.9430    36.0620    18.3370 f          1 UNL      -0.197800
     25 F1          70.8690    34.2060    18.2630 f          1 UNL      -0.197800
     26 C8          71.3680    35.6020    20.1690 c3         1 UNL       0.150800
     27 H9          71.9470    36.4660    19.8210 h1         1 UNL       0.068200
     28 O3          72.4070    34.5860    20.4110 oh         1 UNL      -0.383000
     29 H10         71.9800    33.7530    20.8410 ho         1 UNL       0.210100
@<TRIPOS>BOND
     1     1     3 1   
     2     1     2 1   
     3     3     6 1   
     4     3     4 1   
     5     3     5 1   
     6     6     8 1   
     7     6    26 1   
     8     6     7 1   
     9     8     9 1   
    10     9    11 1   
    11     9    23 1   
    12     9    10 1   
    13    11    12 1   
    14    11    18 1   
    15    12    14 2   
    16    12    13 1   
    17    14    16 1   
    18    14    15 1   
    19    16    17 2   
    20    16    20 1   
    21    17    18 1   
    22    18    19 2   
    23    20    21 1   
    24    20    22 1   
    25    23    24 1   
    26    23    25 1   
    27    23    26 1   
    28    26    28 1   
    29    26    27 1   
    30    28    29 1   
@<TRIPOS>SUBSTRUCTURE
     1 UNL         1 TEMP              0 ****  ****    0 ROOT
