@<TRIPOS>MOLECULE
LIGAND
   37    39     1     0     0
SMALL
No Charge or Current Charge


@<TRIPOS>ATOM
      1 C           35.7510    26.4540    66.2660 c3         1 UNL      -0.018200
      2 H           36.5570    27.1120    66.6240 h1         1 UNL       0.034000
      3 H1          35.3100    25.9480    67.1370 h1         1 UNL       0.034000
      4 H2          36.1930    25.7110    65.5860 h1         1 UNL       0.034000
      5 S           34.5750    27.5210    65.4310 ss         1 UNL      -0.165600
      6 C1          33.3440    26.3020    64.8930 c3         1 UNL      -0.016600
      7 H3          33.5370    25.3380    65.3990 h1         1 UNL       0.036100
      8 H4          33.5590    26.1340    63.8220 h1         1 UNL       0.036100
      9 C2          31.9070    26.7610    65.1170 c3         1 UNL      -0.041800
     10 H5          31.8410    27.8280    64.8470 hx         1 UNL       0.012300
     11 N           31.0410    26.0300    64.1980 n4         1 UNL       0.389500
     12 H6          31.5400    25.7640    63.3550 hn         1 UNL      -0.084400
     13 H7          30.3250    26.6660    63.8650 hn         1 UNL      -0.084400
     14 C3          30.6020    25.1360    66.3640 c3         1 UNL       0.071300
     15 H8          31.1350    24.3310    66.8740 h1         1 UNL       0.060500
     16 O           29.3200    25.1720    67.0690 oh         1 UNL      -0.390600
     17 H9          29.0430    26.1510    67.2280 ho         1 UNL       0.209800
     18 C4          31.3990    26.5060    66.5400 c3         1 UNL       0.068300
     19 H10         32.2150    26.4470    67.2800 h1         1 UNL       0.060200
     20 O1          30.4910    27.5980    66.9450 oh         1 UNL      -0.390900
     21 H11         30.9970    28.4940    66.9170 ho         1 UNL       0.209800
     22 C5          30.3940    24.8870    64.8300 c3         1 UNL      -0.021800
     23 H12         29.3190    24.9010    64.5830 hx         1 UNL       0.016500
     24 C6          31.0360    23.5960    64.2260 cc         1 UNL      -0.015300
     25 C7          30.9900    23.2520    62.8750 cd         1 UNL       0.006100
     26 H13         30.4910    23.8750    62.1330 h4         1 UNL       0.081000
     27 N1          31.5900    22.1240    62.5570 na         1 UNL      -0.355000
     28 H14         31.6680    21.6940    61.6240 hn         1 UNL       0.165500
     29 C8          32.0960    21.6420    63.7600 cd         1 UNL       0.130300
     30 C9          32.8500    20.4330    64.0420 c          1 UNL       0.275300
     31 O2          33.1940    19.5680    63.2270 o          1 UNL      -0.265600
     32 N2          33.2040    20.2720    65.4160 n          1 UNL      -0.311700
     33 H15         33.7400    19.4330    65.6780 hn         1 UNL       0.169800
     34 C10         32.8690    21.1860    66.4420 cd         1 UNL       0.096700
     35 H16         33.1870    20.9790    67.4640 h5         1 UNL       0.102800
     36 N3          32.1460    22.3390    66.1780 nc         1 UNL      -0.235400
     37 C11         31.7810    22.5230    64.8190 cc         1 UNL       0.097100
@<TRIPOS>BOND
     1     1     5 1   
     2     1     2 1   
     3     1     3 1   
     4     1     4 1   
     5     5     6 1   
     6     6     9 1   
     7     6     7 1   
     8     6     8 1   
     9     9    11 1   
    10     9    18 1   
    11     9    10 1   
    12    11    22 1   
    13    11    12 1   
    14    11    13 1   
    15    14    16 1   
    16    14    18 1   
    17    14    22 1   
    18    14    15 1   
    19    16    17 1   
    20    18    20 1   
    21    18    19 1   
    22    20    21 1   
    23    22    24 1   
    24    22    23 1   
    25    24    25 2   
    26    24    37 1   
    27    25    27 1   
    28    25    26 1   
    29    27    29 1   
    30    27    28 1   
    31    29    30 1   
    32    29    37 2   
    33    30    31 2   
    34    30    32 1   
    35    32    34 1   
    36    32    33 1   
    37    34    36 2   
    38    34    35 1   
    39    36    37 1   
@<TRIPOS>SUBSTRUCTURE
     1 UNL         1 TEMP              0 ****  ****    0 ROOT
