REMARK  1 active torsions:
REMARK  status: ('A' for Active; 'I' for Inactive)
REMARK    1  A    between atoms: N2_22  and  O1_23 
ROOT
ATOM      1  C   UNL d          40.306   3.918  35.381  0.00  0.00     0.024 A 
ATOM      2  C1  UNL d          39.689   5.274  35.224  0.00  0.00     0.124 A 
ATOM      3  C2  UNL d          40.821   3.877  36.699  0.00  0.00     0.045 A 
ATOM      4  N   UNL d          40.596   5.055  37.347  0.00  0.00    -0.353 N 
ATOM      5  H   UNL d          40.885   5.239  38.319  0.00  0.00     0.166 HD
ATOM      6  C3  UNL d          41.470   2.735  37.209  0.00  0.00     0.030 A 
ATOM      7  C4  UNL d          41.614   1.606  36.362  0.00  0.00     0.002 A 
ATOM      8  C5  UNL d          41.102   1.640  35.027  0.00  0.00     0.001 A 
ATOM      9  C6  UNL d          40.437   2.806  34.523  0.00  0.00     0.016 A 
ATOM     10  C7  UNL d          39.939   5.973  36.556  0.00  0.00     0.081 A 
ATOM     11  C8  UNL d          39.592   7.234  36.934  0.00  0.00     0.073 A 
ATOM     12  C9  UNL d          40.117   7.736  38.276  0.00  0.00     0.259 A 
ATOM     13  N1  UNL d          39.588   9.009  38.435  0.00  0.00    -0.322 N 
ATOM     14  H5  UNL d          39.761   9.610  39.254  0.00  0.00     0.169 HD
ATOM     15  C10 UNL d          38.798   9.372  37.355  0.00  0.00     0.046 A 
ATOM     16  C11 UNL d          38.752   8.333  36.387  0.00  0.00     0.009 A 
ATOM     17  C12 UNL d          38.110  10.598  37.215  0.00  0.00     0.030 A 
ATOM     18  C13 UNL d          37.333  10.792  36.048  0.00  0.00     0.002 A 
ATOM     19  C14 UNL d          37.264   9.769  35.052  0.00  0.00     0.001 A 
ATOM     20  C15 UNL d          37.978   8.536  35.221  0.00  0.00     0.015 A 
ATOM     21  O   UNL d          40.847   7.149  39.076  0.00  0.00    -0.267 OA
ATOM     22  N2  UNL d          39.040   5.805  34.233  0.00  0.00    -0.133 NA
ENDROOT
BRANCH  22  23
ATOM     23  O1  UNL d          38.883   5.011  33.096  0.00  0.00    -0.266 OA
ATOM     24  H10 UNL d          38.292   5.504  32.411  0.00  0.00     0.247 HD
ENDBRANCH  22  23
TORSDOF 1
