@<TRIPOS>MOLECULE
LIGAND
   32    35     1     0     0
SMALL
No Charge or Current Charge


@<TRIPOS>ATOM
      1 C           40.3060     3.9180    35.3810 ca         1 UNL       0.026500
      2 C1          39.6890     5.2740    35.2240 cc         1 UNL       0.133100
      3 C2          40.8210     3.8770    36.6990 ca         1 UNL       0.040800
      4 N           40.5960     5.0550    37.3470 na         1 UNL      -0.311600
      5 H           40.8850     5.2390    38.3190 hn         1 UNL       0.152200
      6 C3          41.4700     2.7350    37.2090 ca         1 UNL      -0.039900
      7 H1          41.8520     2.7190    38.2300 ha         1 UNL       0.063600
      8 C4          41.6140     1.6060    36.3620 ca         1 UNL      -0.060000
      9 H2          42.1160     0.7110    36.7290 ha         1 UNL       0.061800
     10 C5          41.1020     1.6400    35.0270 ca         1 UNL      -0.061000
     11 H3          41.2190     0.7680    34.3840 ha         1 UNL       0.061800
     12 C6          40.4370     2.8060    34.5230 ca         1 UNL      -0.050600
     13 H4          40.0440     2.8320    33.5070 ha         1 UNL       0.062500
     14 C7          39.9390     5.9730    36.5560 cc         1 UNL       0.073800
     15 C8          39.5920     7.2340    36.9340 cd         1 UNL       0.069200
     16 C9          40.1170     7.7360    38.2760 c          1 UNL       0.250800
     17 N1          39.5880     9.0090    38.4350 n          1 UNL      -0.280900
     18 H5          39.7610     9.6100    39.2540 hn         1 UNL       0.155200
     19 C10         38.7980     9.3720    37.3550 ca         1 UNL       0.041600
     20 C11         38.7520     8.3330    36.3870 ca         1 UNL       0.010200
     21 C12         38.1100    10.5980    37.2150 ca         1 UNL      -0.039900
     22 H6          38.1750    11.3700    37.9820 ha         1 UNL       0.063600
     23 C13         37.3330    10.7920    36.0480 ca         1 UNL      -0.060000
     24 H7          36.7860    11.7240    35.9080 ha         1 UNL       0.061800
     25 C14         37.2640     9.7690    35.0520 ca         1 UNL      -0.061100
     26 H8          36.6640     9.9270    34.1560 ha         1 UNL       0.061800
     27 C15         37.9780     8.5360    35.2210 ca         1 UNL      -0.052000
     28 H9          37.9240     7.7610    34.4560 ha         1 UNL       0.062400
     29 O           40.8470     7.1490    39.0760 o          1 UNL      -0.269800
     30 N2          39.0400     5.8050    34.2330 n2         1 UNL      -0.085100
     31 O1          38.8830     5.0110    33.0960 oh         1 UNL      -0.408700
     32 H10         38.2920     5.5040    32.4110 ho         1 UNL       0.327800
@<TRIPOS>BOND
     1     1     2 1   
     2     1     3 ar  
     3     1    12 ar  
     4     2    14 1   
     5     2    30 2   
     6     3     4 1   
     7     3     6 ar  
     8     4    14 1   
     9     4     5 1   
    10     6     8 ar  
    11     6     7 1   
    12     8    10 ar  
    13     8     9 1   
    14    10    12 ar  
    15    10    11 1   
    16    12    13 1   
    17    14    15 2   
    18    15    16 1   
    19    15    20 1   
    20    16    17 1   
    21    16    29 2   
    22    17    19 1   
    23    17    18 1   
    24    19    20 ar  
    25    19    21 ar  
    26    20    27 ar  
    27    21    23 ar  
    28    21    22 1   
    29    23    25 ar  
    30    23    24 1   
    31    25    27 ar  
    32    25    26 1   
    33    27    28 1   
    34    30    31 1   
    35    31    32 1   
@<TRIPOS>SUBSTRUCTURE
     1 UNL         1 TEMP              0 ****  ****    0 ROOT
