@<TRIPOS>MOLECULE
LIGAND
   51    50     1     0     0
SMALL
No Charge or Current Charge


@<TRIPOS>ATOM
      1 N            9.2380    13.3090    24.5120 n          1 UNL      -0.303200
      2 H            8.9970    14.0330    23.8200 hn         1 UNL       0.149500
      3 C           11.0490    16.6580    24.4840 c3         1 UNL      -0.062600
      4 H1          11.9020    16.8690    23.8150 hc         1 UNL       0.023200
      5 H2          10.3100    16.1170    23.8730 hc         1 UNL       0.023200
      6 H3          10.6090    17.6290    24.7670 hc         1 UNL       0.023200
      7 O           11.1370    12.5040    22.5230 o          1 UNL      -0.273800
      8 C1           9.3710    13.6010    25.8150 c          1 UNL       0.219600
      9 O1           7.7670    18.2020    29.0500 o          1 UNL      -0.422900
     10 C2           9.4500    11.9230    24.1200 c3         1 UNL       0.104200
     11 H4           9.4250    11.2880    25.0160 h1         1 UNL       0.060000
     12 C3           8.2890    11.4530    23.2340 c3         1 UNL      -0.010800
     13 C4           8.1580    12.3860    22.0150 c3         1 UNL      -0.057900
     14 H5           7.2750    12.1050    21.4140 hc         1 UNL       0.023600
     15 H6           8.0200    13.4430    22.2920 hc         1 UNL       0.023600
     16 H7           9.0180    12.3230    21.3300 hc         1 UNL       0.023600
     17 C5           8.5450    10.0130    22.7590 c3         1 UNL      -0.057900
     18 H8           7.6990     9.6380    22.1570 hc         1 UNL       0.023600
     19 H9           9.4450     9.9380    22.1250 hc         1 UNL       0.023600
     20 H10          8.6740     9.3200    23.6070 hc         1 UNL       0.023600
     21 C6          10.7830    11.7330    23.4160 c          1 UNL       0.233600
     22 C7          12.7670    10.3810    23.2210 c3         1 UNL       0.000100
     23 H11         12.6100    10.1970    22.1470 h1         1 UNL       0.042600
     24 H12         13.4770    11.2160    23.3320 h1         1 UNL       0.042600
     25 H13         13.2090     9.4800    23.6710 h1         1 UNL       0.042600
     26 N1           7.9160    16.8480    28.8540 n          1 UNL      -0.309000
     27 H14          8.2030    16.1750    29.5790 hn         1 UNL       0.154600
     28 C8           7.6330    16.5310    27.5810 c          1 UNL       0.085100
     29 O2           7.1610    17.3410    26.7870 o          1 UNL      -0.539400
     30 C9           7.9410    15.1230    27.1540 c3         1 UNL       0.111400
     31 H15          8.2410    14.5380    28.0390 h1         1 UNL       0.067000
     32 O3           6.7810    14.4760    26.6530 oh         1 UNL      -0.384600
     33 H16          6.0580    15.1790    26.4460 ho         1 UNL       0.210300
     34 C10          9.0900    15.0580    26.1490 c3         1 UNL       0.067600
     35 H17          8.7550    15.6060    25.2540 hc         1 UNL       0.042400
     36 C11         10.3530    15.7170    26.7200 c3         1 UNL      -0.036800
     37 H18         10.7010    15.1520    27.6030 hc         1 UNL       0.027600
     38 H19         10.0840    16.7260    27.0810 hc         1 UNL       0.027600
     39 C12         11.4960    15.8800    25.7060 c3         1 UNL      -0.045900
     40 H20         11.8320    14.8760    25.3800 hc         1 UNL       0.029600
     41 C13         12.6810    16.5890    26.3600 c3         1 UNL      -0.062600
     42 H21         13.0480    16.0400    27.2430 hc         1 UNL       0.023200
     43 H22         13.5300    16.6890    25.6630 hc         1 UNL       0.023200
     44 H23         12.4000    17.6030    26.6910 hc         1 UNL       0.023200
     45 O4           9.6760    12.7950    26.6940 o          1 UNL      -0.275400
     46 C14          6.9900    11.5010    24.0580 c3         1 UNL      -0.057900
     47 H24          6.1270    11.1430    23.4710 hc         1 UNL       0.023600
     48 H25          7.0560    10.8680    24.9590 hc         1 UNL       0.023600
     49 H26          6.7500    12.5240    24.3940 hc         1 UNL       0.023600
     50 N2          11.5000    10.6890    23.8780 n          1 UNL      -0.316800
     51 H27         11.1640    10.1250    24.6720 hn         1 UNL       0.148400
@<TRIPOS>BOND
     1     1     8 1   
     2     1    10 1   
     3     1     2 1   
     4     3    39 1   
     5     3     4 1   
     6     3     5 1   
     7     3     6 1   
     8     7    21 2   
     9     8    34 1   
    10     8    45 2   
    11     9    26 2   
    12    10    12 1   
    13    10    21 1   
    14    10    11 1   
    15    12    13 1   
    16    12    17 1   
    17    12    46 1   
    18    13    14 1   
    19    13    15 1   
    20    13    16 1   
    21    17    18 1   
    22    17    19 1   
    23    17    20 1   
    24    21    50 1   
    25    22    50 1   
    26    22    23 1   
    27    22    24 1   
    28    22    25 1   
    29    26    28 1   
    30    26    27 1   
    31    28    29 2   
    32    28    30 1   
    33    30    32 1   
    34    30    34 1   
    35    30    31 1   
    36    32    33 1   
    37    34    36 1   
    38    34    35 1   
    39    36    39 1   
    40    36    37 1   
    41    36    38 1   
    42    39    41 1   
    43    39    40 1   
    44    41    42 1   
    45    41    43 1   
    46    41    44 1   
    47    46    47 1   
    48    46    48 1   
    49    46    49 1   
    50    50    51 1   
@<TRIPOS>SUBSTRUCTURE
     1 UNL         1 TEMP              0 ****  ****    0 ROOT
