@<TRIPOS>MOLECULE
LIGAND
   30    31     1     0     0
SMALL
No Charge or Current Charge


@<TRIPOS>ATOM
      1 C            7.1650    28.8000    -3.4190 ca         1 UNL      -0.061200
      2 H            7.6220    27.8870    -3.8000 ha         1 UNL       0.061800
      3 C1           7.9960    29.9080    -2.9780 ca         1 UNL      -0.053900
      4 H1           9.0790    29.8320    -3.0700 ha         1 UNL       0.062400
      5 C2           7.4050    31.1310    -2.4090 cp         1 UNL      -0.015100
      6 C3           5.9180    31.1860    -2.3550 ca         1 UNL      -0.053900
      7 H2           5.4340    32.0840    -1.9700 ha         1 UNL       0.062400
      8 C4           5.1100    30.0940    -2.7940 ca         1 UNL      -0.061200
      9 H3           4.0250    30.1490    -2.7110 ha         1 UNL       0.061800
     10 C5           5.7330    28.9200    -3.3470 ca         1 UNL      -0.061700
     11 H4           5.1090    28.1070    -3.7180 ha         1 UNL       0.061800
     12 C6           8.2080    32.2190    -1.9230 cp         1 UNL       0.017300
     13 C7           9.4770    31.9350    -1.1840 ca         1 UNL      -0.051000
     14 H5           9.7880    30.9010    -1.0330 ha         1 UNL       0.062500
     15 C8          10.2930    32.9970    -0.6700 ca         1 UNL      -0.057000
     16 H6          11.1560    32.7590    -0.0480 ha         1 UNL       0.062100
     17 C9           9.9840    34.3880    -0.9680 ca         1 UNL      -0.031100
     18 C10          8.7720    34.6890    -1.6770 ca         1 UNL      -0.021900
     19 H7           8.4750    35.7300    -1.8020 ha         1 UNL       0.064900
     20 C11          7.9400    33.6530    -2.2260 ca         1 UNL       0.131300
     21 C12         10.8540    35.5880    -0.4360 c3         1 UNL       0.082900
     22 H8          11.8340    35.1670    -0.1600 hc         1 UNL       0.046100
     23 C13         10.2100    36.3010     0.8070 c3         1 UNL      -0.048000
     24 H9          10.8380    37.1420     1.1400 hc         1 UNL       0.024100
     25 H10          9.2130    36.6980     0.5610 hc         1 UNL       0.024100
     26 H11         10.0940    35.6060     1.6520 hc         1 UNL       0.024100
     27 C14         11.1200    36.6260    -1.6110 c          1 UNL       0.363000
     28 O           10.5880    37.7400    -1.5960 o          1 UNL      -0.245700
     29 O1          11.8690    36.2900    -2.5550 o          1 UNL      -0.245700
     30 F            6.8130    34.0900    -2.9120 f          1 UNL      -0.204800
@<TRIPOS>BOND
     1     1     3 ar  
     2     1    10 ar  
     3     1     2 1   
     4     3     5 ar  
     5     3     4 1   
     6     5     6 ar  
     7     5    12 1   
     8     6     8 ar  
     9     6     7 1   
    10     8    10 ar  
    11     8     9 1   
    12    10    11 1   
    13    12    13 ar  
    14    12    20 ar  
    15    13    15 ar  
    16    13    14 1   
    17    15    17 ar  
    18    15    16 1   
    19    17    18 ar  
    20    17    21 1   
    21    18    20 ar  
    22    18    19 1   
    23    20    30 1   
    24    21    23 1   
    25    21    27 1   
    26    21    22 1   
    27    23    24 1   
    28    23    25 1   
    29    23    26 1   
    30    27    28 1   
    31    27    29 1   
@<TRIPOS>SUBSTRUCTURE
     1 UNL         1 TEMP              0 ****  ****    0 ROOT
