@<TRIPOS>MOLECULE
LIGAND
   29    30     1     0     0
SMALL
No Charge or Current Charge


@<TRIPOS>ATOM
      1 C           32.2540    16.9310    30.8630 ca         1 UNL       0.120900
      2 C1          31.6740    16.1320    31.9040 ca         1 UNL       0.021300
      3 H           30.5900    16.0790    32.0100 ha         1 UNL       0.069100
      4 C2          32.5180    15.4030    32.8040 ca         1 UNL       0.120900
      5 C3          33.9470    15.4510    32.6560 ca         1 UNL      -0.012800
      6 H1          34.5810    14.8830    33.3370 ha         1 UNL       0.066000
      7 C4          34.5420    16.2400    31.6200 ca         1 UNL      -0.018100
      8 C5          33.6860    16.9870    30.7170 ca         1 UNL      -0.012800
      9 H2          34.1280    17.5920    29.9260 ha         1 UNL       0.066000
     10 C6          36.0000    16.2490    31.4920 ce         1 UNL      -0.053800
     11 H3          36.5920    15.6290    32.1660 ha         1 UNL       0.062400
     12 C7          36.6650    17.0320    30.5270 cf         1 UNL      -0.054000
     13 H4          36.0690    17.6710    29.8750 ha         1 UNL       0.062400
     14 C8          38.1080    17.0280    30.3600 ca         1 UNL      -0.024800
     15 C9          38.9830    16.2110    31.1730 ca         1 UNL      -0.051100
     16 H5          38.5670    15.5740    31.9530 ha         1 UNL       0.062500
     17 C10         40.4060    16.2420    30.9490 ca         1 UNL      -0.019600
     18 H6          41.0680    15.6270    31.5590 ha         1 UNL       0.065400
     19 C11         40.9530    17.0860    29.9200 ca         1 UNL       0.116900
     20 C12         40.0820    17.8940    29.1270 ca         1 UNL      -0.019600
     21 H7          40.4950    18.5380    28.3510 ha         1 UNL       0.065400
     22 C13         38.6720    17.8610    29.3480 ca         1 UNL      -0.051100
     23 H8          38.0170    18.4810    28.7350 ha         1 UNL       0.062500
     24 O           42.2880    17.1250    29.6860 oh         1 UNL      -0.506800
     25 H9          42.6540    18.0540    29.9390 ho         1 UNL       0.292100
     26 O1          31.9660    14.6410    33.7920 oh         1 UNL      -0.506600
     27 H10         31.2850    15.2040    34.3210 ho         1 UNL       0.292100
     28 O2          31.4570    17.6140    30.0270 oh         1 UNL      -0.506600
     29 H11         31.7470    18.6020    30.0060 ho         1 UNL       0.292100
@<TRIPOS>BOND
     1     1     2 ar  
     2     1     8 ar  
     3     1    28 1   
     4     2     4 ar  
     5     2     3 1   
     6     4     5 ar  
     7     4    26 1   
     8     5     7 ar  
     9     5     6 1   
    10     7     8 ar  
    11     7    10 1   
    12     8     9 1   
    13    10    12 2   
    14    10    11 1   
    15    12    14 1   
    16    12    13 1   
    17    14    15 ar  
    18    14    22 ar  
    19    15    17 ar  
    20    15    16 1   
    21    17    19 ar  
    22    17    18 1   
    23    19    20 ar  
    24    19    24 1   
    25    20    22 ar  
    26    20    21 1   
    27    22    23 1   
    28    24    25 1   
    29    26    27 1   
    30    28    29 1   
@<TRIPOS>SUBSTRUCTURE
     1 UNL         1 TEMP              0 ****  ****    0 ROOT
