REMARK  5 active torsions:
REMARK  status: ('A' for Active; 'I' for Inactive)
REMARK    1  A    between atoms: C_1  and  O2_19 
REMARK    2  A    between atoms: C2_3  and  O1_17 
REMARK    3  A    between atoms: C4_5  and  C6_7 
REMARK    4  A    between atoms: C7_8  and  C8_9 
REMARK    5  A    between atoms: C11_12  and  O_15 
ROOT
ATOM      1  C   UNL d          32.254  16.931  30.863  0.00  0.00     0.069 A 
ATOM      2  C1  UNL d          31.674  16.132  31.904  0.00  0.00     0.073 A 
ATOM      3  C2  UNL d          32.518  15.403  32.804  0.00  0.00     0.069 A 
ATOM      4  C3  UNL d          33.947  15.451  32.656  0.00  0.00     0.048 A 
ATOM      5  C4  UNL d          34.542  16.240  31.620  0.00  0.00    -0.031 A 
ATOM      6  C5  UNL d          33.686  16.987  30.717  0.00  0.00     0.048 A 
ENDROOT
BRANCH   5   7
ATOM      7  C6  UNL d          36.000  16.249  31.492  0.00  0.00     0.012 C 
ATOM      8  C7  UNL d          36.665  17.032  30.527  0.00  0.00     0.012 C 
BRANCH   8   9
ATOM      9  C8  UNL d          38.108  17.028  30.360  0.00  0.00    -0.036 A 
ATOM     10  C9  UNL d          38.983  16.211  31.173  0.00  0.00     0.014 A 
ATOM     11  C10 UNL d          40.406  16.242  30.949  0.00  0.00     0.037 A 
ATOM     12  C11 UNL d          40.953  17.086  29.920  0.00  0.00     0.065 A 
ATOM     13  C12 UNL d          40.082  17.894  29.127  0.00  0.00     0.037 A 
ATOM     14  C13 UNL d          38.672  17.861  29.348  0.00  0.00     0.014 A 
BRANCH  12  15
ATOM     15  O   UNL d          42.288  17.125  29.686  0.00  0.00    -0.361 OA
ATOM     16  H9  UNL d          42.654  18.054  29.939  0.00  0.00     0.217 HD
ENDBRANCH  12  15
ENDBRANCH   8   9
ENDBRANCH   5   7
BRANCH   3  17
ATOM     17  O1  UNL d          31.966  14.641  33.792  0.00  0.00    -0.361 OA
ATOM     18  H10 UNL d          31.285  15.204  34.321  0.00  0.00     0.217 HD
ENDBRANCH   3  17
BRANCH   1  19
ATOM     19  O2  UNL d          31.457  17.614  30.027  0.00  0.00    -0.361 OA
ATOM     20  H11 UNL d          31.747  18.602  30.006  0.00  0.00     0.217 HD
ENDBRANCH   1  19
TORSDOF 5
