@<TRIPOS>MOLECULE
LIGAND
   63    67     1     0     0
SMALL
No Charge or Current Charge


@<TRIPOS>ATOM
      1 C           31.1720    -0.2380    28.7070 c3         1 UNL       0.076000
      2 H           31.0930    -0.3220    29.8070 h1         1 UNL       0.050400
      3 C1          31.2760    -1.6690    28.1770 c3         1 UNL       0.141200
      4 H1          32.0200    -2.2070    28.7840 h1         1 UNL       0.079900
      5 O           30.0500    -2.3690    28.4310 os         1 UNL      -0.481700
      6 C2          28.8610    -1.9480    27.9670 ca         1 UNL       0.135000
      7 C3          27.9320    -2.9010    27.5800 ca         1 UNL      -0.015400
      8 H2          28.1540    -3.9570    27.7320 ha         1 UNL       0.065600
      9 C4          26.7240    -2.5350    27.0030 ca         1 UNL      -0.016700
     10 H3          26.0810    -3.2820    26.5370 ha         1 UNL       0.065500
     11 C5          26.3460    -1.1830    27.0310 ca         1 UNL       0.118100
     12 O1          25.1280    -0.8570    26.5840 oh         1 UNL      -0.506700
     13 H4          25.0520     0.1680    26.5110 ho         1 UNL       0.292100
     14 C6          27.2840    -0.2150    27.4260 ca         1 UNL      -0.003200
     15 H5          27.0050     0.8380    27.3950 ha         1 UNL       0.066600
     16 C7          28.5550    -0.5630    27.8540 ca         1 UNL       0.053700
     17 S           29.6080     0.4570    28.1910 ss         1 UNL      -0.109400
     18 C8          32.4700     0.4800    28.4200 ca         1 UNL      -0.030100
     19 C9          32.6800     1.3800    27.3730 ca         1 UNL      -0.053900
     20 H6          31.8670     1.6110    26.6840 ha         1 UNL       0.062200
     21 C10         33.9320     1.9870    27.2050 ca         1 UNL      -0.019900
     22 H7          34.0950     2.6820    26.3820 ha         1 UNL       0.065400
     23 C11         34.9760     1.6980    28.0990 ca         1 UNL       0.116900
     24 O2          36.1910     2.2510    27.9230 oh         1 UNL      -0.506800
     25 H8          36.9000     1.6860    28.4120 ho         1 UNL       0.292100
     26 C12         34.7830     0.7840    29.1430 ca         1 UNL      -0.019900
     27 H9          35.6030     0.5290    29.8140 ha         1 UNL       0.065400
     28 C13         33.5190     0.2030    29.3110 ca         1 UNL      -0.053900
     29 H10         33.3470    -0.4750    30.1470 ha         1 UNL       0.062200
     30 C14         31.6300    -1.8400    26.7020 ca         1 UNL      -0.005700
     31 C15         32.6480    -2.7670    26.4480 ca         1 UNL      -0.051600
     32 H11         33.1200    -3.2800    27.2850 ha         1 UNL       0.062300
     33 C16         33.0730    -3.0500    25.1480 ca         1 UNL      -0.019600
     34 H12         33.8420    -3.8020    24.9730 ha         1 UNL       0.065400
     35 C17         32.4960    -2.3520    24.0600 ca         1 UNL       0.120400
     36 C18         31.4550    -1.4710    24.2950 ca         1 UNL      -0.019600
     37 H13         30.9430    -1.0030    23.4540 ha         1 UNL       0.065400
     38 C19         31.0470    -1.1710    25.6230 ca         1 UNL      -0.051600
     39 H14         30.2790    -0.4180    25.8000 ha         1 UNL       0.062300
     40 O3          32.9110    -2.5720    22.7850 os         1 UNL      -0.493800
     41 C20         34.0020    -3.4000    22.3460 c3         1 UNL       0.075000
     42 H15         34.4000    -4.0680    23.1190 h1         1 UNL       0.067700
     43 H16         34.8350    -2.7290    22.0710 h1         1 UNL       0.067700
     44 C21         33.6550    -4.3840    21.2060 c3         1 UNL      -0.055500
     45 H17         33.0770    -5.2020    21.6770 hx         1 UNL       0.009100
     46 H18         34.5750    -4.8440    20.8100 hx         1 UNL       0.009100
     47 N           32.8000    -4.0120    20.0540 n4         1 UNL       0.381900
     48 H19         32.4250    -4.9330    19.8510 hn         1 UNL      -0.081700
     49 C22         31.5970    -3.2410    20.3190 c3         1 UNL      -0.090500
     50 H20         31.8950    -2.1970    20.4990 hx         1 UNL       0.005900
     51 H21         31.1250    -3.6250    21.2360 hx         1 UNL       0.005900
     52 C23         30.5570    -3.2640    19.1770 c3         1 UNL      -0.068100
     53 H22         29.7660    -2.5510    19.4570 hc         1 UNL       0.024700
     54 H23         30.0730    -4.2550    19.1110 hc         1 UNL       0.024700
     55 C24         31.1870    -2.9120    17.8130 c3         1 UNL      -0.056400
     56 H24         31.5110    -1.8550    17.8000 hc         1 UNL       0.026400
     57 H25         30.4560    -3.0300    16.9930 hc         1 UNL       0.026400
     58 C25         32.4130    -3.8420    17.6170 c3         1 UNL      -0.068100
     59 H26         32.9390    -3.6070    16.6780 hc         1 UNL       0.024700
     60 H27         32.0840    -4.8930    17.5340 hc         1 UNL       0.024700
     61 C26         33.4340    -3.6740    18.7760 c3         1 UNL      -0.090500
     62 H28         34.2960    -4.3390    18.6160 hx         1 UNL       0.005900
     63 H29         33.8080    -2.6410    18.8280 hx         1 UNL       0.005900
@<TRIPOS>BOND
     1     1     3 1   
     2     1    17 1   
     3     1    18 1   
     4     1     2 1   
     5     3     5 1   
     6     3    30 1   
     7     3     4 1   
     8     5     6 1   
     9     6     7 ar  
    10     6    16 ar  
    11     7     9 ar  
    12     7     8 1   
    13     9    11 ar  
    14     9    10 1   
    15    11    12 1   
    16    11    14 ar  
    17    12    13 1   
    18    14    16 ar  
    19    14    15 1   
    20    16    17 1   
    21    18    19 ar  
    22    18    28 ar  
    23    19    21 ar  
    24    19    20 1   
    25    21    23 ar  
    26    21    22 1   
    27    23    24 1   
    28    23    26 ar  
    29    24    25 1   
    30    26    28 ar  
    31    26    27 1   
    32    28    29 1   
    33    30    31 ar  
    34    30    38 ar  
    35    31    33 ar  
    36    31    32 1   
    37    33    35 ar  
    38    33    34 1   
    39    35    36 ar  
    40    35    40 1   
    41    36    38 ar  
    42    36    37 1   
    43    38    39 1   
    44    40    41 1   
    45    41    44 1   
    46    41    42 1   
    47    41    43 1   
    48    44    47 1   
    49    44    45 1   
    50    44    46 1   
    51    47    49 1   
    52    47    61 1   
    53    47    48 1   
    54    49    52 1   
    55    49    50 1   
    56    49    51 1   
    57    52    55 1   
    58    52    53 1   
    59    52    54 1   
    60    55    58 1   
    61    55    56 1   
    62    55    57 1   
    63    58    61 1   
    64    58    59 1   
    65    58    60 1   
    66    61    62 1   
    67    61    63 1   
@<TRIPOS>SUBSTRUCTURE
     1 UNL         1 TEMP              0 ****  ****    0 ROOT
