REMARK  8 active torsions:
REMARK  status: ('A' for Active; 'I' for Inactive)
REMARK    1  A    between atoms: C_1  and  C8_13 
REMARK    2  A    between atoms: C1_2  and  C14_21 
REMARK    3  A    between atoms: C5_7  and  O1_8 
REMARK    4  A    between atoms: C11_16  and  O2_17 
REMARK    5  A    between atoms: C17_24  and  O3_27 
REMARK    6  A    between atoms: O3_27  and  C20_28 
REMARK    7  A    between atoms: C20_28  and  C21_29 
REMARK    8  A    between atoms: C21_29  and  N_30 
ROOT
ATOM      1  C   UNL d          31.172  -0.238  28.707  0.00  0.00     0.119 C 
ATOM      2  C1  UNL d          31.276  -1.669  28.177  0.00  0.00     0.180 C 
ATOM      3  O   UNL d          30.050  -2.369  28.431  0.00  0.00    -0.338 OA
ATOM      4  C2  UNL d          28.861  -1.948  27.967  0.00  0.00     0.086 C 
ATOM      5  C3  UNL d          27.932  -2.901  27.580  0.00  0.00     0.041 C 
ATOM      6  C4  UNL d          26.724  -2.535  27.003  0.00  0.00     0.039 C 
ATOM      7  C5  UNL d          26.346  -1.183  27.031  0.00  0.00     0.067 C 
ATOM      8  C6  UNL d          27.284  -0.215  27.426  0.00  0.00     0.057 C 
ATOM      9  C7  UNL d          28.555  -0.563  27.854  0.00  0.00     0.037 C 
ATOM     10  S   UNL d          29.608   0.457  28.191  0.00  0.00    -0.114 SA
ENDROOT
BRANCH   2  11
ATOM     11  C14 UNL d          31.630  -1.840  26.702  0.00  0.00    -0.027 A 
ATOM     12  C15 UNL d          32.648  -2.767  26.448  0.00  0.00     0.012 A 
ATOM     13  C16 UNL d          33.073  -3.050  25.148  0.00  0.00     0.037 A 
ATOM     14  C17 UNL d          32.496  -2.352  24.060  0.00  0.00     0.068 A 
ATOM     15  C18 UNL d          31.455  -1.471  24.295  0.00  0.00     0.037 A 
ATOM     16  C19 UNL d          31.047  -1.171  25.623  0.00  0.00     0.012 A 
BRANCH  14  17
ATOM     17  O3  UNL d          32.911  -2.572  22.785  0.00  0.00    -0.350 OA
BRANCH  17  18
ATOM     18  C20 UNL d          34.002  -3.400  22.346  0.00  0.00     0.203 C 
BRANCH  18  19
ATOM     19  C21 UNL d          33.655  -4.384  21.206  0.00  0.00     0.261 C 
BRANCH  19  20
ATOM     20  N   UNL d          32.800  -4.012  20.054  0.00  0.00    -0.069 N 
ATOM     21  C22 UNL d          31.597  -3.241  20.319  0.00  0.00     0.235 C 
ATOM     22  C23 UNL d          30.557  -3.264  19.177  0.00  0.00     0.028 C 
ATOM     23  C24 UNL d          31.187  -2.912  17.813  0.00  0.00     0.003 C 
ATOM     24  C25 UNL d          32.413  -3.842  17.617  0.00  0.00     0.028 C 
ATOM     25  C26 UNL d          33.434  -3.674  18.776  0.00  0.00     0.235 C 
ATOM     26  H19 UNL d          32.425  -4.933  19.851  0.00  0.00     0.280 HD
ENDBRANCH  19  20
ENDBRANCH  18  19
ENDBRANCH  17  18
ENDBRANCH  14  17
ENDBRANCH   2  11
BRANCH   1  27
ATOM     27  C8  UNL d          32.470   0.480  28.420  0.00  0.00    -0.041 A 
ATOM     28  C9  UNL d          32.680   1.380  27.373  0.00  0.00     0.011 A 
ATOM     29  C10 UNL d          33.932   1.987  27.205  0.00  0.00     0.037 A 
ATOM     30  C11 UNL d          34.976   1.698  28.099  0.00  0.00     0.065 A 
ATOM     31  C12 UNL d          34.783   0.784  29.143  0.00  0.00     0.037 A 
ATOM     32  C13 UNL d          33.519   0.203  29.311  0.00  0.00     0.011 A 
BRANCH  30  33
ATOM     33  O2  UNL d          36.191   2.251  27.923  0.00  0.00    -0.361 OA
ATOM     34  H8  UNL d          36.900   1.686  28.412  0.00  0.00     0.217 HD
ENDBRANCH  30  33
ENDBRANCH   1  27
BRANCH   7  35
ATOM     35  O1  UNL d          25.128  -0.857  26.584  0.00  0.00    -0.361 OA
ATOM     36  H4  UNL d          25.052   0.168  26.511  0.00  0.00     0.217 HD
ENDBRANCH   7  35
TORSDOF 8
