REMARK  1 active torsions:
REMARK  status: ('A' for Active; 'I' for Inactive)
REMARK    1  A    between atoms: C15_17  and  O1_18 
ROOT
ATOM      1  O   UNL d          13.634  27.316   2.827  0.00  0.00    -0.293 OA
ATOM      2  C   UNL d          13.095  26.690   3.674  0.00  0.00     0.149 C 
ATOM      3  C1  UNL d          11.584  26.516   3.725  0.00  0.00     0.084 C 
ATOM      4  C2  UNL d          13.984  26.000   4.646  0.00  0.00     0.053 C 
ATOM      5  C3  UNL d          13.303  25.314   5.708  0.00  0.00    -0.072 C 
ATOM      6  C4  UNL d          14.242  24.520   6.648  0.00  0.00     0.035 C 
ATOM      7  C5  UNL d          11.931  25.317   6.027  0.00  0.00     0.019 C 
ATOM      8  C6  UNL d          11.114  26.365   5.211  0.00  0.00     0.017 C 
ATOM      9  C7  UNL d          11.569  25.210   7.419  0.00  0.00    -0.002 C 
ATOM     10  C8  UNL d          12.305  24.437   8.356  0.00  0.00    -0.005 C 
ATOM     11  C9  UNL d          13.846  24.528   8.151  0.00  0.00     0.010 C 
ATOM     12  C10 UNL d          10.055  25.352   7.730  0.00  0.00     0.006 C 
ATOM     13  C11 UNL d           9.731  25.367   9.248  0.00  0.00     0.014 C 
ATOM     14  C12 UNL d          10.413  24.266  10.083  0.00  0.00     0.003 C 
ATOM     15  C13 UNL d          11.890  24.328   9.723  0.00  0.00     0.002 C 
ATOM     16  C14 UNL d           9.845  22.863   9.654  0.00  0.00     0.020 C 
ATOM     17  C15 UNL d          10.424  24.341  11.606  0.00  0.00     0.128 C 
ATOM     18  C16 UNL d          11.668  23.536  12.017  0.00  0.00     0.052 C 
ATOM     19  C17 UNL d          12.638  23.584  10.815  0.00  0.00     0.010 C 
ATOM     20  C18 UNL d          10.667  25.746  12.048  0.00  0.00    -0.078 C 
ATOM     21  C19 UNL d          10.980  26.894  12.510  0.00  0.00     0.015 C 
ENDROOT
BRANCH  17  22
ATOM     22  O1  UNL d           9.254  23.875  12.286  0.00  0.00    -0.377 OA
ATOM     23  H20 UNL d           8.620  24.603  12.246  0.00  0.00     0.211 HD
ENDBRANCH  17  22
TORSDOF 1
