REMARK  6 active torsions:
REMARK  status: ('A' for Active; 'I' for Inactive)
REMARK    1  A    between atoms: C2_3  and  O_12 
REMARK    2  A    between atoms: C5_6  and  C6_9 
REMARK       I    between atoms: C6_9  and  N1_28 
REMARK    3  A    between atoms: C7_10  and  C8_14 
REMARK    4  A    between atoms: O_12  and  C9_15 
REMARK    5  A    between atoms: C8_14  and  N1_28 
REMARK    6  A    between atoms: C9_15  and  C16_25 
ROOT
ATOM      1  C6  UNL d          18.009  -8.689  15.113  0.00  0.00     0.254 C 
ATOM      2  O1  UNL d          18.517  -9.352  14.187  0.00  0.00    -0.268 OA
ATOM      3  N1  UNL d          18.344  -7.348  15.313  0.00  0.00    -0.351 N 
ATOM      4  H8  UNL d          18.065  -6.893  16.194  0.00  0.00     0.163 HD
ENDROOT
BRANCH   3   5
ATOM      5  C8  UNL d          19.065  -6.578  14.333  0.00  0.00     0.190 C 
BRANCH   5   6
ATOM      6  C7  UNL d          18.182  -5.895  13.314  0.00  0.00     0.094 A 
ATOM      7  N   UNL d          18.619  -4.963  12.476  0.00  0.00    -0.240 NA
ATOM      8  C12 UNL d          17.564  -4.534  11.667  0.00  0.00     0.119 A 
ATOM      9  C10 UNL d          16.295  -5.194  11.937  0.00  0.00     0.077 A 
ATOM     10  C15 UNL d          17.663  -3.533  10.642  0.00  0.00     0.185 A 
ATOM     11  S   UNL d          16.505  -6.307  13.186  0.00  0.00    -0.068 SA
ATOM     12  C13 UNL d          15.137  -4.836  11.170  0.00  0.00     0.139 A 
ATOM     13  F2  UNL d          13.947  -5.441  11.408  0.00  0.00    -0.204 F 
ATOM     14  C14 UNL d          15.233  -3.848  10.157  0.00  0.00     0.089 A 
ATOM     15  C11 UNL d          16.489  -3.200   9.895  0.00  0.00     0.160 A 
ATOM     16  F   UNL d          16.559  -2.260   8.925  0.00  0.00    -0.203 F 
ATOM     17  F3  UNL d          18.822  -2.922  10.387  0.00  0.00    -0.200 F 
ENDBRANCH   5   6
ENDBRANCH   3   5
BRANCH   1  18
ATOM     18  C5  UNL d          17.016  -9.308  16.057  0.00  0.00     0.065 A 
ATOM     19  C1  UNL d          16.332 -10.488  15.625  0.00  0.00     0.023 A 
ATOM     20  C4  UNL d          15.376 -11.136  16.453  0.00  0.00     0.043 A 
ATOM     21  C3  UNL d          15.090 -10.596  17.753  0.00  0.00     0.119 A 
ATOM     22  C   UNL d          15.749  -9.433  18.210  0.00  0.00     0.080 A 
ATOM     23  F1  UNL d          14.188 -11.181  18.575  0.00  0.00    -0.206 F 
ATOM     24  C2  UNL d          16.709  -8.786  17.368  0.00  0.00     0.088 A 
BRANCH  24  25
ATOM     25  O   UNL d          17.410  -7.627  17.734  0.00  0.00    -0.340 OA
BRANCH  25  26
ATOM     26  C9  UNL d          16.903  -6.791  18.782  0.00  0.00     0.288 C 
BRANCH  26  27
ATOM     27  C16 UNL d          15.699  -6.030  18.259  0.00  0.00     0.198 C 
ATOM     28  O2  UNL d          15.322  -5.795  17.108  0.00  0.00    -0.646 OA
ATOM     29  O3  UNL d          14.948  -5.555  19.274  0.00  0.00    -0.646 OA
ENDBRANCH  26  27
ENDBRANCH  25  26
ENDBRANCH  24  25
ENDBRANCH   1  18
TORSDOF 6
