REMARK  7 active torsions:
REMARK  status: ('A' for Active; 'I' for Inactive)
REMARK    1  A    between atoms: C2_3  and  C5_7 
REMARK    2  A    between atoms: C8_11  and  N3_13 
REMARK    3  A    between atoms: N3_13  and  C9_15 
REMARK    4  A    between atoms: C13_19  and  N4_21 
REMARK       I    between atoms: N4_21  and  C15_23 
REMARK    5  A    between atoms: C15_23  and  C16_24 
REMARK    6  A    between atoms: C19_27  and  C22_30 
REMARK    7  A    between atoms: C22_30  and  N5_31 
ROOT
ATOM      1  C9  UNL d          25.347  25.511  43.560  0.00  0.00     0.057 A 
ATOM      2  C10 UNL d          24.299  26.065  44.294  0.00  0.00    -0.035 A 
ATOM      3  C11 UNL d          23.207  26.610  43.628  0.00  0.00     0.011 A 
ATOM      4  C12 UNL d          23.149  26.603  42.233  0.00  0.00     0.030 A 
ATOM      5  C13 UNL d          24.195  26.054  41.495  0.00  0.00     0.037 A 
ATOM      6  C14 UNL d          25.283  25.490  42.165  0.00  0.00     0.060 A 
ATOM      7  C28 UNL d          24.325  26.084  45.806  0.00  0.00     0.050 C 
ENDROOT
BRANCH   5   8
ATOM      8  N4  UNL d          24.061  26.050  40.097  0.00  0.00    -0.323 N 
ATOM      9  C15 UNL d          24.982  25.624  39.238  0.00  0.00     0.256 C 
ATOM     10  O   UNL d          26.067  25.215  39.591  0.00  0.00    -0.267 OA
ATOM     11  H10 UNL d          23.177  26.406  39.705  0.00  0.00     0.169 HD
BRANCH   9  12
ATOM     12  C16 UNL d          24.652  25.631  37.779  0.00  0.00     0.032 A 
ATOM     13  C17 UNL d          25.443  24.895  36.896  0.00  0.00     0.017 A 
ATOM     14  C18 UNL d          25.135  24.897  35.539  0.00  0.00     0.010 A 
ATOM     15  C19 UNL d          24.040  25.629  35.081  0.00  0.00    -0.041 A 
ATOM     16  C20 UNL d          23.242  26.357  35.961  0.00  0.00     0.010 A 
ATOM     17  C21 UNL d          23.553  26.349  37.318  0.00  0.00     0.017 A 
BRANCH  15  18
ATOM     18  C22 UNL d          23.708  25.615  33.610  0.00  0.00     0.155 C 
BRANCH  18  19
ATOM     19  N5  UNL d          23.612  26.946  33.027  0.00  0.00    -0.405 N 
ATOM     20  C23 UNL d          24.778  27.809  33.187  0.00  0.00     0.144 C 
ATOM     21  C24 UNL d          24.407  29.225  32.769  0.00  0.00     0.253 C 
ATOM     22  N6  UNL d          23.858  29.153  31.422  0.00  0.00    -0.072 N 
ATOM     23  C25 UNL d          23.830  30.437  30.729  0.00  0.00     0.269 C 
ATOM     24  C26 UNL d          22.696  28.302  31.191  0.00  0.00     0.253 C 
ATOM     25  H21 UNL d          24.590  28.665  30.920  0.00  0.00     0.279 HD
ATOM     26  C27 UNL d          22.966  26.900  31.718  0.00  0.00     0.144 C 
ENDBRANCH  18  19
ENDBRANCH  15  18
ENDBRANCH   9  12
ENDBRANCH   5   8
BRANCH   1  27
ATOM     27  N3  UNL d          26.404  24.954  44.201  0.00  0.00    -0.188 N 
ATOM     28  H6  UNL d          26.312  23.985  44.539  0.00  0.00     0.184 HD
BRANCH  27  29
ATOM     29  C8  UNL d          27.566  25.594  44.421  0.00  0.00     0.727 A 
ATOM     30  N1  UNL d          27.854  26.789  43.849  0.00  0.00    -0.075 NA
ATOM     31  C7  UNL d          29.034  27.388  44.093  0.00  0.00     0.139 A 
ATOM     32  C6  UNL d          29.972  26.783  44.926  0.00  0.00     0.053 A 
ATOM     33  C5  UNL d          29.657  25.542  45.479  0.00  0.00     0.089 A 
ATOM     34  N2  UNL d          28.465  24.975  45.216  0.00  0.00    -0.062 NA
BRANCH  33  35
ATOM     35  C2  UNL d          30.607  24.822  46.355  0.00  0.00     0.011 A 
ATOM     36  C1  UNL d          31.818  25.409  46.719  0.00  0.00     0.017 A 
ATOM     37  C   UNL d          32.696  24.700  47.541  0.00  0.00     0.020 A 
ATOM     38  C4  UNL d          32.330  23.424  47.955  0.00  0.00     0.116 A 
ATOM     39  N   UNL d          31.156  22.877  47.575  0.00  0.00    -0.272 NA
ATOM     40  C3  UNL d          30.289  23.540  46.793  0.00  0.00     0.130 A 
ENDBRANCH  33  35
ENDBRANCH  27  29
ENDBRANCH   1  27
TORSDOF 7
