@<TRIPOS>MOLECULE
LIGAND
   34    35     1     0     0
SMALL
No Charge or Current Charge


@<TRIPOS>ATOM
      1 C           -5.6700    52.5360   118.7470 c3         1 UNL       0.081900
      2 H           -5.8760    52.0610   117.7770 h1         1 UNL       0.066100
      3 H1          -5.5930    53.6250   118.6000 h1         1 UNL       0.066100
      4 H2          -4.7050    52.1660   119.1270 h1         1 UNL       0.066100
      5 O           -6.7340    52.1970   119.6030 os         1 UNL      -0.465600
      6 C1          -6.7480    52.6780   120.9590 ca         1 UNL       0.322300
      7 N           -5.6720    53.4900   121.3960 nb         1 UNL      -0.180200
      8 C2          -5.7020    53.9620   122.7430 ca         1 UNL       0.134900
      9 C3          -4.6130    54.7740   123.1810 c3         1 UNL      -0.004300
     10 H3          -3.7180    54.5970   122.5650 hc         1 UNL       0.030800
     11 H4          -4.8290    55.8550   123.1240 hc         1 UNL       0.030800
     12 H5          -4.3520    54.5670   124.2310 hc         1 UNL       0.030800
     13 N1          -6.7590    53.6340   123.6260 nb         1 UNL      -0.199300
     14 C4          -7.8250    52.8060   123.1330 ca         1 UNL       0.229000
     15 N2          -8.8410    52.4660   123.9490 n          1 UNL      -0.233400
     16 H6          -8.8190    52.8300   124.9120 hn         1 UNL       0.159600
     17 C5          -9.8820    51.6880   123.6020 c2         1 UNL       0.357900
     18 O1         -10.1240    51.1410   122.5090 o          1 UNL      -0.245900
     19 N3         -10.6660    51.5410   124.6930 ne         1 UNL      -0.071700
     20 S          -12.0350    50.6070   124.6980 sy         1 UNL       0.104500
     21 O2         -13.2920    51.0400   124.1490 o          1 UNL      -0.146200
     22 O3         -11.8610    50.5510   126.1390 o          1 UNL      -0.146200
     23 C6         -11.4930    48.9690   124.3530 ca         1 UNL       0.130800
     24 C7         -12.4580    48.2930   123.5240 ca         1 UNL      -0.033400
     25 H7         -13.3650    48.8120   123.2150 ha         1 UNL       0.063800
     26 C8         -12.2250    46.9030   123.0910 ca         1 UNL      -0.059800
     27 H8         -12.9570    46.3910   122.4660 ha         1 UNL       0.061800
     28 C9         -10.9900    46.2120   123.5120 ca         1 UNL      -0.060300
     29 H9         -10.8000    45.1860   123.1970 ha         1 UNL       0.061800
     30 C10        -10.0540    46.8930   124.3290 ca         1 UNL      -0.041500
     31 H10         -9.1450    46.3790   124.6410 ha         1 UNL       0.063300
     32 C11        -10.2790    48.2540   124.7580 ca         1 UNL       0.067800
     33 N4          -7.7810    52.3560   121.8040 nb         1 UNL      -0.160900
     34 Cl          -9.0940    48.9900   125.7400 cl         1 UNL      -0.081500
@<TRIPOS>BOND
     1     1     5 1   
     2     1     2 1   
     3     1     3 1   
     4     1     4 1   
     5     5     6 1   
     6     6     7 ar  
     7     6    33 ar  
     8     7     8 ar  
     9     8     9 1   
    10     8    13 ar  
    11     9    10 1   
    12     9    11 1   
    13     9    12 1   
    14    13    14 ar  
    15    14    15 1   
    16    14    33 ar  
    17    15    17 1   
    18    15    16 1   
    19    17    18 1   
    20    17    19 2   
    21    19    20 1   
    22    20    21 2   
    23    20    22 2   
    24    20    23 1   
    25    23    24 ar  
    26    23    32 ar  
    27    24    26 ar  
    28    24    25 1   
    29    26    28 ar  
    30    26    27 1   
    31    28    30 ar  
    32    28    29 1   
    33    30    32 ar  
    34    30    31 1   
    35    32    34 1   
@<TRIPOS>SUBSTRUCTURE
     1 UNL         1 TEMP              0 ****  ****    0 ROOT
