@<TRIPOS>MOLECULE
LIGAND
   33    35     1     0     0
SMALL
No Charge or Current Charge


@<TRIPOS>ATOM
      1 O           17.4080     7.2290     2.0020 o          1 UNL      -0.246400
      2 C           17.9280     6.4240     2.7610 c          1 UNL       0.356100
      3 O1          17.1920     5.4060     3.1960 o          1 UNL      -0.246400
      4 C1          19.3710     6.5730     3.1920 c3         1 UNL       0.050800
      5 H           19.4370     7.5220     3.7530 hc         1 UNL       0.037900
      6 H1          20.0160     6.7380     2.3150 hc         1 UNL       0.037900
      7 C2          19.8380     5.4040     4.0810 c3         1 UNL      -0.024700
      8 H2          19.0830     5.1740     4.8530 hc         1 UNL       0.028800
      9 H3          20.7530     5.7020     4.6190 hc         1 UNL       0.028800
     10 C3          20.1330     4.1170     3.2890 c3         1 UNL       0.024400
     11 H4          19.1850     3.7050     2.9100 h1         1 UNL       0.049200
     12 H5          20.5790     3.3700     3.9650 h1         1 UNL       0.049200
     13 N           21.0330     4.3350     2.1460 na         1 UNL      -0.339800
     14 C4          20.6150     4.5170     0.8490 ca         1 UNL       0.050100
     15 C5          19.3820     4.6100     0.2010 ca         1 UNL      -0.037600
     16 H6          18.4550     4.5190     0.7670 ha         1 UNL       0.063800
     17 C6          21.8270     4.6580     0.0110 cp         1 UNL       0.007600
     18 C7          21.7870     4.8620    -1.3620 ca         1 UNL      -0.052000
     19 H7          22.6990     4.9480    -1.9530 ha         1 UNL       0.062400
     20 C8          20.5190     4.9520    -1.9530 ca         1 UNL      -0.061100
     21 H8          20.4400     5.1260    -3.0260 ha         1 UNL       0.061800
     22 C9          19.3480     4.8220    -1.1880 ca         1 UNL      -0.059800
     23 H9          18.3820     4.8880    -1.6880 ha         1 UNL       0.061800
     24 C10         22.9600     4.5250     0.9060 cp         1 UNL       0.007600
     25 C11         22.3980     4.3210     2.2560 ca         1 UNL       0.050100
     26 C12         23.3060     4.1740     3.3110 ca         1 UNL      -0.037600
     27 H10         22.9520     4.0300     4.3320 ha         1 UNL       0.063800
     28 C13         24.3290     4.5700     0.6410 ca         1 UNL      -0.052000
     29 H11         24.7130     4.7250    -0.3670 ha         1 UNL       0.062400
     30 C14         25.1830     4.4050     1.7380 ca         1 UNL      -0.061100
     31 H12         26.2620     4.4250     1.5830 ha         1 UNL       0.061800
     32 C15         24.6770     4.2150     3.0320 ca         1 UNL      -0.059800
     33 H13         25.3810     4.0940     3.8550 ha         1 UNL       0.061800
@<TRIPOS>BOND
     1     1     2 1   
     2     2     3 1   
     3     2     4 1   
     4     4     7 1   
     5     4     5 1   
     6     4     6 1   
     7     7    10 1   
     8     7     8 1   
     9     7     9 1   
    10    10    13 1   
    11    10    11 1   
    12    10    12 1   
    13    13    14 1   
    14    13    25 1   
    15    14    15 ar  
    16    14    17 ar  
    17    15    22 ar  
    18    15    16 1   
    19    17    18 ar  
    20    17    24 1   
    21    18    20 ar  
    22    18    19 1   
    23    20    22 ar  
    24    20    21 1   
    25    22    23 1   
    26    24    25 ar  
    27    24    28 ar  
    28    25    26 ar  
    29    26    32 ar  
    30    26    27 1   
    31    28    30 ar  
    32    28    29 1   
    33    30    32 ar  
    34    30    31 1   
    35    32    33 1   
@<TRIPOS>SUBSTRUCTURE
     1 UNL         1 TEMP              0 ****  ****    0 ROOT
