@<TRIPOS>MOLECULE
LIGAND
   29    29     1     0     0
SMALL
No Charge or Current Charge


@<TRIPOS>ATOM
      1 N            2.1690     0.5040    24.1980 n4         1 UNL       0.388600
      2 H1           1.9960     1.3010    23.6130 hn         1 UNL      -0.084700
      3 H2           2.6210    -0.2500    23.6530 hn         1 UNL      -0.084700
      4 C            0.8890     0.0040    24.8850 c3         1 UNL      -0.085500
      5 H            0.5660    -0.9380    24.4160 hx         1 UNL       0.006000
      6 H3           0.1350     0.7930    24.7300 hx         1 UNL       0.006000
      7 C1          -0.9750    -0.0870    27.1820 c2         1 UNL      -0.099500
      8 H4          -1.2300     0.0040    26.1260 ha         1 UNL       0.053400
      9 H5          -1.7650    -0.1150    27.9330 ha         1 UNL       0.053400
     10 C2           0.7020    -0.2880    28.9520 c3         1 UNL      -0.043800
     11 H6           1.3330     0.5690    29.2480 hc         1 UNL       0.027400
     12 H7          -0.1500    -0.3320    29.6440 hc         1 UNL       0.027400
     13 H8           1.3110    -1.1960    29.0980 hc         1 UNL       0.027400
     14 CA           3.1870     0.7010    25.2160 c3         1 UNL       0.027100
     15 HA           3.7940     1.5790    24.9240 hx         1 UNL       0.020600
     16 C3           2.4360     0.9210    26.5050 c3         1 UNL      -0.028500
     17 H9           3.0960     0.7200    27.3660 hc         1 UNL       0.030000
     18 C4           1.8050     2.3820    26.7350 c3         1 UNL       0.051500
     19 H10          1.0110     2.3450    27.4990 hc         1 UNL       0.038100
     20 H11          1.3300     2.7900    25.8300 hc         1 UNL       0.038100
     21 C5           1.3620    -0.1190    26.4070 c3         1 UNL      -0.033300
     22 H12          1.8760    -1.1010    26.4910 hc         1 UNL       0.032900
     23 C6           2.8530     3.3780    27.2490 c          1 UNL       0.356200
     24 C7           0.2610    -0.1620    27.5430 c2         1 UNL      -0.078200
     25 C8           4.2550    -0.4590    25.2630 c          1 UNL       0.342800
     26 O            4.3490    -1.1400    24.2180 o          1 UNL      -0.248200
     27 O1           2.4780     4.5590    27.2590 o          1 UNL      -0.246400
     28 O2           3.9750     2.9610    27.6130 o          1 UNL      -0.246400
     29 OXT          4.9320    -0.5650    26.3310 o          1 UNL      -0.248200
@<TRIPOS>BOND
     1     1     4 1   
     2     1    14 1   
     3     1     2 1   
     4     1     3 1   
     5     4    21 1   
     6     4     5 1   
     7     4     6 1   
     8     7    24 2   
     9     7     8 1   
    10     7     9 1   
    11    10    24 1   
    12    10    11 1   
    13    10    12 1   
    14    10    13 1   
    15    14    16 1   
    16    14    25 1   
    17    14    15 1   
    18    16    18 1   
    19    16    21 1   
    20    16    17 1   
    21    18    23 1   
    22    18    19 1   
    23    18    20 1   
    24    21    24 1   
    25    21    22 1   
    26    23    27 1   
    27    23    28 1   
    28    25    26 1   
    29    25    29 1   
@<TRIPOS>SUBSTRUCTURE
     1 UNL         1 TEMP              0 ****  ****    0 ROOT
