REMARK  4 active torsions:
REMARK  status: ('A' for Active; 'I' for Inactive)
REMARK    1  A    between atoms: CA_7  and  C8_14 
REMARK    2  A    between atoms: C3_9  and  C4_10 
REMARK    3  A    between atoms: C4_10  and  C6_12 
REMARK    4  A    between atoms: C5_11  and  C7_13 
ROOT
ATOM      1  N   UNL d           2.169   0.504  24.198  0.00  0.00     0.078 N 
ATOM      2  H1  UNL d           1.996   1.301  23.613  0.00  0.00     0.312 HD
ATOM      3  H2  UNL d           2.621  -0.250  23.653  0.00  0.00     0.312 HD
ATOM      4  C   UNL d           0.889   0.004  24.885  0.00  0.00     0.276 C 
ATOM      5 CA   UNL d           3.187   0.701  25.216  0.00  0.00     0.000 Ca
ATOM      6  HA  UNL d           3.794   1.579  24.924  0.00  0.00     0.000 HD
ATOM      7  C3  UNL d           2.436   0.921  26.505  0.00  0.00     0.010 C 
ATOM      8  C5  UNL d           1.362  -0.119  26.407  0.00  0.00     0.046 C 
ENDROOT
BRANCH   5   9
ATOM      9  C8  UNL d           4.255  -0.459  25.263  0.00  0.00     0.279 C 
ATOM     10  O   UNL d           4.349  -1.140  24.218  0.00  0.00    -0.639 OA
ATOM     11  OXT UNL d           4.932  -0.565  26.331  0.00  0.00    -0.639 OA
ENDBRANCH   5   9
BRANCH   7  12
ATOM     12  C4  UNL d           1.805   2.382  26.735  0.00  0.00     0.119 C 
BRANCH  12  13
ATOM     13  C6  UNL d           2.853   3.378  27.249  0.00  0.00     0.172 C 
ATOM     14  O1  UNL d           2.478   4.559  27.259  0.00  0.00    -0.648 OA
ATOM     15  O2  UNL d           3.975   2.961  27.613  0.00  0.00    -0.648 OA
ENDBRANCH  12  13
ENDBRANCH   7  12
BRANCH   8  16
ATOM     16  C7  UNL d           0.261  -0.162  27.543  0.00  0.00    -0.087 C 
ATOM     17  C1  UNL d          -0.975  -0.087  27.182  0.00  0.00     0.014 C 
ATOM     18  C2  UNL d           0.702  -0.288  28.952  0.00  0.00     0.043 C 
ENDBRANCH   8  16
TORSDOF 4
