@<TRIPOS>MOLECULE
LIGAND
   40    41     1     0     0
SMALL
No Charge or Current Charge


@<TRIPOS>ATOM
      1 C           15.8960    63.5110    37.0920 c3         1 UNL      -0.061200
      2 C1          15.5990    62.2330    36.3390 c3         1 UNL      -0.029700
      3 C2          16.7550    61.8740    35.4350 ce         1 UNL      -0.036800
      4 C3          18.1270    61.7880    36.0280 ca         1 UNL      -0.021400
      5 C4          18.5620    60.5690    36.5240 ca         1 UNL      -0.050900
      6 C5          19.8120    60.4670    37.1070 ca         1 UNL      -0.019600
      7 C6          20.6290    61.5750    37.1920 ca         1 UNL       0.116900
      8 O           21.8580    61.4390    37.7810 oh         1 UNL      -0.506800
      9 C7          20.1980    62.8080    36.7100 ca         1 UNL      -0.019600
     10 C8          18.9360    62.9190    36.1260 ca         1 UNL      -0.050900
     11 C9          16.5290    61.6470    34.1530 cf         1 UNL      -0.036800
     12 C10         15.1150    61.7390    33.6570 ca         1 UNL      -0.021400
     13 C11         14.7630    62.4820    32.5310 ca         1 UNL      -0.050900
     14 C12         13.4230    62.5160    32.1200 ca         1 UNL      -0.019600
     15 C13         12.4470    61.8160    32.8340 ca         1 UNL       0.116900
     16 O1          11.1180    61.8350    32.4560 oh         1 UNL      -0.506800
     17 C14         12.8100    61.0840    33.9530 ca         1 UNL      -0.019600
     18 C15         14.1380    61.0480    34.3610 ca         1 UNL      -0.050900
     19 C16         17.6740    61.2560    33.2420 c3         1 UNL      -0.029700
     20 C17         17.8200    59.7470    33.3270 c3         1 UNL      -0.061200
     21 H           15.0310    63.8110    37.7080 hc         1 UNL       0.023300
     22 H1          16.7570    63.4280    37.7740 hc         1 UNL       0.023300
     23 H2          16.1010    64.3390    36.3920 hc         1 UNL       0.023300
     24 H3          14.6570    62.5400    35.8730 hc         1 UNL       0.031100
     25 H4          15.3790    61.4190    37.0490 hc         1 UNL       0.031100
     26 H5          17.9190    59.6910    36.4550 ha         1 UNL       0.062500
     27 H6          20.1520    59.5090    37.5000 ha         1 UNL       0.065400
     28 H7          22.0700    62.2820    38.3330 ho         1 UNL       0.292100
     29 H8          20.8440    63.6830    36.7890 ha         1 UNL       0.065400
     30 H9          18.5860    63.8800    35.7500 ha         1 UNL       0.062500
     31 H10         15.5230    63.0320    31.9750 ha         1 UNL       0.062500
     32 H11         13.1410    63.0920    31.2380 ha         1 UNL       0.065400
     33 H12         10.8010    62.8110    32.3640 ho         1 UNL       0.292100
     34 H13         12.0530    60.5360    34.5140 ha         1 UNL       0.065400
     35 H14         14.4150    60.4710    35.2430 ha         1 UNL       0.062500
     36 H15         18.6180    61.7620    33.5010 hc         1 UNL       0.031100
     37 H16         17.4550    61.5390    32.1990 hc         1 UNL       0.031100
     38 H17         18.5890    59.3840    32.6250 hc         1 UNL       0.023300
     39 H18         18.1090    59.3870    34.3210 hc         1 UNL       0.023300
     40 H19         16.8760    59.2440    33.0560 hc         1 UNL       0.023300
@<TRIPOS>BOND
     1     1     2 1   
     2     2     3 1   
     3     3     4 1   
     4     3    11 2   
     5     4     5 ar  
     6     4    10 ar  
     7     5     6 ar  
     8     6     7 ar  
     9     7     8 1   
    10     7     9 ar  
    11     9    10 ar  
    12    11    12 1   
    13    11    19 1   
    14    12    13 ar  
    15    12    18 ar  
    16    13    14 ar  
    17    14    15 ar  
    18    15    16 1   
    19    15    17 ar  
    20    17    18 ar  
    21    19    20 1   
    22     1    21 1   
    23     1    22 1   
    24     1    23 1   
    25     2    24 1   
    26     2    25 1   
    27     5    26 1   
    28     6    27 1   
    29     8    28 1   
    30     9    29 1   
    31    10    30 1   
    32    13    31 1   
    33    14    32 1   
    34    16    33 1   
    35    17    34 1   
    36    18    35 1   
    37    19    36 1   
    38    19    37 1   
    39    20    38 1   
    40    20    39 1   
    41    20    40 1   
@<TRIPOS>SUBSTRUCTURE
     1 UNL         1 TEMP              0 ****  ****    0 ROOT
