@<TRIPOS>MOLECULE
LIGAND
   36    37     1     0     0
SMALL
No Charge or Current Charge


@<TRIPOS>ATOM
      1 O           10.1980   139.4000    45.3180 oh         1 UNL      -0.392700
      2 H           10.9460   139.4560    46.0240 ho         1 UNL       0.209500
      3 C            9.1200   138.7210    45.8420 c3         1 UNL       0.067600
      4 H1           8.2710   139.1440    45.2720 h1         1 UNL       0.058000
      5 H2           8.9150   139.0470    46.8840 h1         1 UNL       0.058000
      6 C1           8.9850   137.2500    45.8090 c3         1 UNL       0.073000
      7 H3           7.8960   137.0370    45.8980 h1         1 UNL       0.058300
      8 H4           9.3670   136.9800    46.8250 h1         1 UNL       0.058300
      9 O1           9.5180   136.5090    44.8360 os         1 UNL      -0.356900
     10 C2          10.0070   135.4240    45.4490 c3         1 UNL       0.128300
     11 H5           9.9890   134.6800    44.6190 h2         1 UNL       0.080100
     12 H6           9.2320   134.9510    46.1020 h2         1 UNL       0.080100
     13 N           11.2300   135.2650    46.0150 n          1 UNL      -0.276500
     14 C3          11.4230   134.8310    47.3900 c          1 UNL       0.331100
     15 O2          10.4900   134.5950    48.1770 o          1 UNL      -0.246400
     16 N1          12.7660   134.7130    47.8470 n          1 UNL      -0.274600
     17 H7          12.9360   134.4050    48.8150 hn         1 UNL       0.173400
     18 C4          13.8810   135.0050    47.0160 c          1 UNL       0.257400
     19 O3          15.0180   134.8390    47.4920 o          1 UNL      -0.267400
     20 C5          12.3720   135.5590    45.1880 cc         1 UNL       0.020200
     21 H8          12.2060   135.8800    44.1600 h4         1 UNL       0.081600
     22 C6          13.6950   135.4480    45.6570 cd         1 UNL       0.037600
     23 C7          14.9030   135.8690    44.7380 c3         1 UNL       0.004100
     24 H9          14.6170   135.7730    43.6780 hc         1 UNL       0.036400
     25 H10         15.7420   135.1730    44.8980 hc         1 UNL       0.036400
     26 C8          15.3760   137.2970    45.0040 ca         1 UNL      -0.042800
     27 C9          14.6280   138.4360    44.5000 ca         1 UNL      -0.058300
     28 H11         13.7090   138.2770    43.9360 ha         1 UNL       0.062000
     29 C10         15.1000   139.7800    44.7450 ca         1 UNL      -0.061500
     30 H12         14.5430   140.6380    44.3690 ha         1 UNL       0.061800
     31 C11         16.3190   139.9710    45.4950 ca         1 UNL      -0.061700
     32 H13         16.6850   140.9800    45.6860 ha         1 UNL       0.061800
     33 C12         17.0540   138.8350    45.9920 ca         1 UNL      -0.061500
     34 H14         17.9730   138.9930    46.5570 ha         1 UNL       0.061800
     35 C13         16.5920   137.5040    45.7530 ca         1 UNL      -0.058300
     36 H15         17.1540   136.6510    46.1340 ha         1 UNL       0.062000
@<TRIPOS>BOND
     1     1     3 1   
     2     1     2 1   
     3     3     6 1   
     4     3     4 1   
     5     3     5 1   
     6     6     9 1   
     7     6     7 1   
     8     6     8 1   
     9     9    10 1   
    10    10    13 1   
    11    10    11 1   
    12    10    12 1   
    13    13    14 1   
    14    13    20 1   
    15    14    15 2   
    16    14    16 1   
    17    16    18 1   
    18    16    17 1   
    19    18    19 2   
    20    18    22 1   
    21    20    22 2   
    22    20    21 1   
    23    22    23 1   
    24    23    26 1   
    25    23    24 1   
    26    23    25 1   
    27    26    27 ar  
    28    26    35 ar  
    29    27    29 ar  
    30    27    28 1   
    31    29    31 ar  
    32    29    30 1   
    33    31    33 ar  
    34    31    32 1   
    35    33    35 ar  
    36    33    34 1   
    37    35    36 1   
@<TRIPOS>SUBSTRUCTURE
     1 UNL         1 TEMP              0 ****  ****    0 ROOT
