REMARK  11 active torsions:
REMARK  status: ('A' for Active; 'I' for Inactive)
REMARK    1  A    between atoms: N_2  and  C4_9 
REMARK    2  A    between atoms: C2_5  and  C3_6 
REMARK       I    between atoms: C3_6  and  N2_8 
REMARK    3  A    between atoms: C4_9  and  C5_10 
REMARK    4  A    between atoms: C4_9  and  C6_12 
REMARK    5  A    between atoms: C5_10  and  O1_11 
REMARK    6  A    between atoms: C6_12  and  C7_13 
REMARK    7  A    between atoms: C7_13  and  N3_14 
REMARK    8  A    between atoms: C14_21  and  N4_23 
REMARK       I    between atoms: N4_23  and  C16_24 
REMARK    9  A    between atoms: C16_24  and  C17_26 
REMARK   10  A    between atoms: C17_26  and  C18_27 
REMARK   11  A    between atoms: C18_27  and  C20_29 
ROOT
ATOM      1  N3  UNL d          49.041  57.303  19.279  0.00  0.00    -0.356 N 
ATOM      2  C8  UNL d          48.548  58.435  18.704  0.00  0.00     0.092 A 
ATOM      3  C9  UNL d          48.091  58.164  17.410  0.00  0.00     0.031 A 
ATOM      4  C10 UNL d          48.322  56.758  17.202  0.00  0.00    -0.008 A 
ATOM      5  C11 UNL d          48.918  56.250  18.394  0.00  0.00     0.046 A 
ATOM      6  C12 UNL d          48.075  55.926  16.142  0.00  0.00     0.016 A 
ATOM      7  C13 UNL d          48.417  54.577  16.239  0.00  0.00     0.030 A 
ATOM      8  C14 UNL d          49.015  54.072  17.408  0.00  0.00     0.036 A 
ATOM      9  C15 UNL d          49.257  54.930  18.484  0.00  0.00     0.060 A 
ENDROOT
BRANCH   1  10
ATOM     10  C7  UNL d          49.651  57.152  20.602  0.00  0.00     0.131 C 
BRANCH  10  11
ATOM     11  C6  UNL d          51.106  57.631  20.564  0.00  0.00     0.048 C 
BRANCH  11  12
ATOM     12  C4  UNL d          51.988  57.130  21.723  0.00  0.00     0.115 C 
BRANCH  12  13
ATOM     13  N   UNL d          51.888  55.688  21.919  0.00  0.00    -0.342 N 
ATOM     14  C   UNL d          51.829  54.677  20.859  0.00  0.00     0.129 A 
ATOM     15  C2  UNL d          51.735  53.520  21.529  0.00  0.00     0.141 A 
ATOM     16  N1  UNL d          51.779  53.775  22.962  0.00  0.00    -0.237 NA
ATOM     17  C1  UNL d          51.860  55.100  23.126  0.00  0.00     0.210 A 
BRANCH  15  18
ATOM     18  C3  UNL d          51.607  52.181  20.916  0.00  0.00     0.269 C 
ATOM     19  O   UNL d          51.361  52.121  19.726  0.00  0.00    -0.266 OA
ATOM     20  N2  UNL d          51.749  51.096  21.682  0.00  0.00    -0.365 N 
ATOM     21  H2  UNL d          51.957  51.198  22.686  0.00  0.00     0.159 HD
ATOM     22  H3  UNL d          51.650  50.158  21.269  0.00  0.00     0.159 HD
ENDBRANCH  15  18
ENDBRANCH  12  13
BRANCH  12  23
ATOM     23  C5  UNL d          53.455  57.568  21.566  0.00  0.00     0.189 C 
BRANCH  23  24
ATOM     24  O1  UNL d          54.251  57.211  22.666  0.00  0.00    -0.399 OA
ATOM     25  H7  UNL d          54.199  57.950  23.382  0.00  0.00     0.209 HD
ENDBRANCH  23  24
ENDBRANCH  12  23
ENDBRANCH  11  12
ENDBRANCH  10  11
ENDBRANCH   1  10
BRANCH   8  26
ATOM     26  N4  UNL d          49.396  52.774  17.544  0.00  0.00    -0.327 N 
ATOM     27  C16 UNL d          49.161  51.771  16.663  0.00  0.00     0.222 C 
ATOM     28  O2  UNL d          48.525  51.860  15.613  0.00  0.00    -0.273 OA
ATOM     29  H17 UNL d          49.914  52.529  18.400  0.00  0.00     0.169 HD
BRANCH  27  30
ATOM     30  C17 UNL d          49.804  50.474  17.127  0.00  0.00     0.108 C 
BRANCH  30  31
ATOM     31  C18 UNL d          49.179  49.254  16.443  0.00  0.00     0.047 C 
BRANCH  31  32
ATOM     32  C20 UNL d          47.819  48.889  17.008  0.00  0.00    -0.058 A 
ATOM     33  C19 UNL d          47.584  48.919  18.382  0.00  0.00     0.007 A 
ATOM     34  C24 UNL d          46.355  48.503  18.886  0.00  0.00     0.001 A 
ATOM     35  C23 UNL d          45.356  48.077  18.023  0.00  0.00     0.000 A 
ATOM     36  C22 UNL d          45.580  48.076  16.646  0.00  0.00     0.001 A 
ATOM     37  C21 UNL d          46.809  48.476  16.142  0.00  0.00     0.007 A 
ENDBRANCH  31  32
ENDBRANCH  30  31
ENDBRANCH  27  30
ENDBRANCH   8  26
TORSDOF 11
