@<TRIPOS>MOLECULE
LIGAND
   60    63     1     0     0
SMALL
No Charge or Current Charge


@<TRIPOS>ATOM
      1 C           51.8290    54.6770    20.8590 cc         1 UNL       0.036800
      2 N           51.8880    55.6880    21.9190 na         1 UNL      -0.330800
      3 C1          51.8600    55.1000    23.1260 cc         1 UNL       0.097100
      4 N1          51.7790    53.7750    22.9620 nd         1 UNL      -0.231100
      5 C2          51.7350    53.5200    21.5290 cd         1 UNL       0.142800
      6 C3          51.6070    52.1810    20.9160 c          1 UNL       0.261300
      7 O           51.3610    52.1210    19.7260 o          1 UNL      -0.268700
      8 N2          51.7490    51.0960    21.6820 n          1 UNL      -0.324000
      9 C4          51.9880    57.1300    21.7230 c3         1 UNL       0.060000
     10 C5          53.4550    57.5680    21.5660 c3         1 UNL       0.065000
     11 O1          54.2510    57.2110    22.6660 oh         1 UNL      -0.393000
     12 C6          51.1060    57.6310    20.5640 c3         1 UNL      -0.011900
     13 C7          49.6510    57.1520    20.6020 c3         1 UNL       0.025200
     14 N3          49.0410    57.3030    19.2790 na         1 UNL      -0.346500
     15 C8          48.5480    58.4350    18.7040 cc         1 UNL       0.005700
     16 C9          48.0910    58.1640    17.4100 cd         1 UNL      -0.036400
     17 C10         48.3220    56.7580    17.2020 ca         1 UNL      -0.000000
     18 C11         48.9180    56.2500    18.3940 ca         1 UNL       0.050800
     19 C12         48.0750    55.9260    16.1420 ca         1 UNL      -0.050800
     20 C13         48.4170    54.5770    16.2390 ca         1 UNL      -0.039800
     21 C14         49.0150    54.0720    17.4080 ca         1 UNL       0.035400
     22 C15         49.2570    54.9300    18.4840 ca         1 UNL      -0.016400
     23 N4          49.3960    52.7740    17.5440 n          1 UNL      -0.285400
     24 C16         49.1610    51.7710    16.6630 c          1 UNL       0.217500
     25 O2          48.5250    51.8600    15.6130 o          1 UNL      -0.275500
     26 C17         49.8040    50.4740    17.1270 c3         1 UNL       0.028200
     27 C18         49.1790    49.2540    16.4430 c3         1 UNL      -0.019400
     28 C19         47.5840    48.9190    18.3820 ca         1 UNL      -0.058600
     29 C20         47.8190    48.8890    17.0080 ca         1 UNL      -0.046900
     30 C21         46.8090    48.4760    16.1420 ca         1 UNL      -0.058600
     31 C22         45.5800    48.0760    16.6460 ca         1 UNL      -0.061500
     32 C23         45.3560    48.0770    18.0230 ca         1 UNL      -0.061700
     33 C24         46.3550    48.5030    18.8860 ca         1 UNL      -0.061500
     34 H           51.8550    54.8300    19.7800 h4         1 UNL       0.083300
     35 H1          51.8970    55.6180    24.0840 h5         1 UNL       0.102900
     36 H2          51.9570    51.1980    22.6860 hn         1 UNL       0.145300
     37 H3          51.6500    50.1580    21.2690 hn         1 UNL       0.145300
     38 H4          51.6300    57.5940    22.6600 h1         1 UNL       0.055100
     39 H5          53.4870    58.6600    21.3930 h1         1 UNL       0.057800
     40 H6          53.9060    57.0940    20.6810 h1         1 UNL       0.057800
     41 H7          54.1990    57.9500    23.3820 ho         1 UNL       0.209500
     42 H8          51.5620    57.2980    19.6140 hc         1 UNL       0.030300
     43 H9          51.1410    58.7330    20.5490 hc         1 UNL       0.030300
     44 H10         49.0930    57.7610    21.3320 h1         1 UNL       0.049200
     45 H11         49.5600    56.1010    20.9080 h1         1 UNL       0.049200
     46 H12         48.5140    59.4130    19.1840 h4         1 UNL       0.080900
     47 H13         47.6510    58.8700    16.7060 ha         1 UNL       0.063900
     48 H14         47.6160    56.3140    15.2330 ha         1 UNL       0.062500
     49 H15         48.2190    53.9080    15.4010 ha         1 UNL       0.063600
     50 H16         49.7160    54.5460    19.3950 ha         1 UNL       0.065700
     51 H17         49.9140    52.5290    18.4000 hn         1 UNL       0.154800
     52 H18         49.8760    50.3300    18.2170 hc         1 UNL       0.036200
     53 H19         50.8580    50.5380    16.7930 hc         1 UNL       0.036200
     54 H20         49.8650    48.4030    16.6030 hc         1 UNL       0.031800
     55 H21         49.1230    49.3950    15.3520 hc         1 UNL       0.031800
     56 H22         48.3620    49.2680    19.0610 ha         1 UNL       0.062000
     57 H23         46.9850    48.4670    15.0660 ha         1 UNL       0.062000
     58 H24         44.7890    47.7610    15.9660 ha         1 UNL       0.061800
     59 H25         44.3970    47.7430    18.4200 ha         1 UNL       0.061800
     60 H26         46.1770    48.5120    19.9610 ha         1 UNL       0.061800
@<TRIPOS>BOND
     1     1     2 1   
     2     1     5 2   
     3     2     3 1   
     4     2     9 1   
     5     3     4 2   
     6     4     5 1   
     7     5     6 1   
     8     6     7 2   
     9     6     8 1   
    10     9    10 1   
    11     9    12 1   
    12    10    11 1   
    13    12    13 1   
    14    13    14 1   
    15    14    15 1   
    16    14    18 1   
    17    15    16 2   
    18    16    17 1   
    19    17    18 ar  
    20    17    19 ar  
    21    18    22 ar  
    22    19    20 ar  
    23    20    21 ar  
    24    21    22 ar  
    25    21    23 1   
    26    23    24 1   
    27    24    25 2   
    28    24    26 1   
    29    26    27 1   
    30    27    29 1   
    31    28    29 ar  
    32    28    33 ar  
    33    29    30 ar  
    34    30    31 ar  
    35    31    32 ar  
    36    32    33 ar  
    37     1    34 1   
    38     3    35 1   
    39     8    36 1   
    40     8    37 1   
    41     9    38 1   
    42    10    39 1   
    43    10    40 1   
    44    11    41 1   
    45    12    42 1   
    46    12    43 1   
    47    13    44 1   
    48    13    45 1   
    49    15    46 1   
    50    16    47 1   
    51    19    48 1   
    52    20    49 1   
    53    22    50 1   
    54    23    51 1   
    55    26    52 1   
    56    26    53 1   
    57    27    54 1   
    58    27    55 1   
    59    28    56 1   
    60    30    57 1   
    61    31    58 1   
    62    32    59 1   
    63    33    60 1   
@<TRIPOS>SUBSTRUCTURE
     1 UNL         1 TEMP              0 ****  ****    0 ROOT
