REMARK  9 active torsions:
REMARK  status: ('A' for Active; 'I' for Inactive)
REMARK    1  A    between atoms: O_1  and  C_3 
REMARK    2  A    between atoms: C_3  and  CA_4 
REMARK    3  A    between atoms: CA_4  and  C1_6 
REMARK    4  A    between atoms: CA_4  and  N_8 
REMARK    5  A    between atoms: N_8  and  C3_10 
REMARK    6  A    between atoms: N2_13  and  C5_14 
REMARK    7  A    between atoms: C10_21  and  N5_22 
REMARK    8  A    between atoms: N5_22  and  C11_24 
REMARK    9  A    between atoms: C11_24  and  C12_25 
ROOT
ATOM      1  C3  UNL d          59.154  28.424  28.009  0.00  0.00     0.745 A 
ATOM      2  N1  UNL d          58.754  27.170  27.687  0.00  0.00    -0.041 NA
ATOM      3  C4  UNL d          58.538  26.849  26.400  0.00  0.00     0.183 A 
ATOM      4  N2  UNL d          58.130  25.697  25.920  0.00  0.00    -0.320 N 
ATOM      5  C8  UNL d          58.035  25.832  24.567  0.00  0.00     0.212 A 
ATOM      6  C9  UNL d          58.726  27.715  25.383  0.00  0.00     0.151 A 
ATOM      7  N3  UNL d          58.450  27.088  24.165  0.00  0.00    -0.236 NA
ATOM      8  N4  UNL d          59.342  29.306  27.010  0.00  0.00    -0.041 NA
ATOM      9  C10 UNL d          59.136  28.993  25.724  0.00  0.00     0.176 A 
ENDROOT
BRANCH   1  10
ATOM     10  N   UNL d          59.365  28.720  29.317  0.00  0.00    -0.114 N 
ATOM     11  H8  UNL d          59.217  27.958  29.994  0.00  0.00     0.206 HD
BRANCH  10  12
ATOM     12 CA   UNL d          59.779  30.006  29.860  0.00  0.00     0.000 Ca
ATOM     13  HA  UNL d          59.992  30.707  29.041  0.00  0.00     0.000 HD
BRANCH  12  14
ATOM     14  C   UNL d          58.543  30.470  30.637  0.00  0.00     0.190 C 
BRANCH  14  15
ATOM     15  O   UNL d          57.526  30.712  29.696  0.00  0.00    -0.399 OA
ATOM     16  H   UNL d          57.444  31.725  29.531  0.00  0.00     0.209 HD
ENDBRANCH  14  15
ENDBRANCH  12  14
BRANCH  12  17
ATOM     17  C1  UNL d          60.936  29.911  30.856  0.00  0.00    -0.005 C 
ATOM     18  C2  UNL d          61.540  28.530  31.002  0.00  0.00     0.005 C 
ENDBRANCH  12  17
ENDBRANCH  10  12
ENDBRANCH   1  10
BRANCH   9  19
ATOM     19  N5  UNL d          59.282  29.886  24.736  0.00  0.00    -0.368 N 
ATOM     20  H17 UNL d          59.333  29.551  23.763  0.00  0.00     0.161 HD
BRANCH  19  21
ATOM     21  C11 UNL d          59.371  31.321  24.996  0.00  0.00     0.160 C 
BRANCH  21  22
ATOM     22  C12 UNL d          60.784  31.842  25.117  0.00  0.00    -0.041 A 
ATOM     23  C13 UNL d          61.116  32.727  26.149  0.00  0.00     0.009 A 
ATOM     24  C14 UNL d          62.423  33.218  26.256  0.00  0.00     0.001 A 
ATOM     25  C15 UNL d          63.389  32.854  25.314  0.00  0.00     0.000 A 
ATOM     26  C16 UNL d          63.052  31.990  24.270  0.00  0.00     0.001 A 
ATOM     27  C17 UNL d          61.752  31.484  24.173  0.00  0.00     0.009 A 
ENDBRANCH  21  22
ENDBRANCH  19  21
ENDBRANCH   9  19
BRANCH   4  28
ATOM     28  C5  UNL d          57.891  24.628  26.903  0.00  0.00     0.084 C 
ATOM     29  C6  UNL d          56.390  24.341  26.894  0.00  0.00     0.032 C 
ATOM     30  C7  UNL d          58.876  23.510  26.687  0.00  0.00     0.032 C 
ENDBRANCH   4  28
TORSDOF 9
