@<TRIPOS>MOLECULE
LIGAND
   27    28     1     0     0
SMALL
No Charge or Current Charge


@<TRIPOS>ATOM
      1 Cl          -4.8020     4.5290    30.6010 cl         1 UNL      -0.075900
      2 C           -3.5890     3.2930    30.6160 cc         1 UNL       0.130200
      3 C1          -3.1120     2.7640    29.4620 cd         1 UNL       0.109500
      4 C2          -3.6290     3.1660    28.0780 c3         1 UNL       0.123900
      5 H           -2.8030     3.4700    27.4320 h1         1 UNL       0.079400
      6 H1          -4.3630     3.9850    28.1200 h1         1 UNL       0.079400
      7 N           -4.2650     1.9450    27.4960 nh         1 UNL      -0.222200
      8 C3          -5.2940     1.1310    28.1790 c3         1 UNL       0.081100
      9 H2          -6.0760     1.7900    28.5980 h1         1 UNL       0.072600
     10 H3          -4.8390     0.6090    29.0430 h1         1 UNL       0.072600
     11 C4          -5.8240     0.1420    27.1130 c3         1 UNL      -0.005900
     12 H4          -6.7990     0.5010    26.7280 hc         1 UNL       0.030700
     13 H5          -6.0440    -0.8560    27.5280 hc         1 UNL       0.030700
     14 C5          -4.7920     0.1450    25.9440 c3         1 UNL       0.049800
     15 H6          -5.2500     0.2320    24.9490 hc         1 UNL       0.038600
     16 H7          -4.1200    -0.7250    25.9600 hc         1 UNL       0.038600
     17 C6          -3.9760     1.3960    26.2670 c2         1 UNL       0.238600
     18 N1          -3.1160     1.9270    25.4500 nh         1 UNL      -0.292400
     19 H8          -2.9290     1.4840    24.5390 hn         1 UNL       0.300500
     20 H9          -2.6210     2.7910    25.7130 hn         1 UNL       0.300500
     21 N2          -2.1490     1.7930    29.5710 nd         1 UNL      -0.192600
     22 C7          -1.6730     1.3490    30.7550 cc         1 UNL       0.349000
     23 O           -0.8200     0.4700    30.7610 o          1 UNL      -0.244600
     24 N3          -2.1450     1.8640    31.9070 n          1 UNL      -0.272300
     25 H10         -1.7970     1.5200    32.8130 hn         1 UNL       0.173500
     26 C8          -3.0730     2.8300    31.8600 c          1 UNL       0.272900
     27 O1          -3.4740     3.3130    32.8930 o          1 UNL      -0.266100
@<TRIPOS>BOND
     1     1     2 1   
     2     2     3 2   
     3     2    26 1   
     4     3     4 1   
     5     3    21 1   
     6     4     7 1   
     7     4     5 1   
     8     4     6 1   
     9     7     8 1   
    10     7    17 2   
    11     8    11 1   
    12     8     9 1   
    13     8    10 1   
    14    11    14 1   
    15    11    12 1   
    16    11    13 1   
    17    14    17 1   
    18    14    15 1   
    19    14    16 1   
    20    17    18 1   
    21    18    19 1   
    22    18    20 1   
    23    21    22 2   
    24    22    23 1   
    25    22    24 1   
    26    24    26 1   
    27    24    25 1   
    28    26    27 2   
@<TRIPOS>SUBSTRUCTURE
     1 UNL         1 TEMP              0 ****  ****    0 ROOT
