@<TRIPOS>MOLECULE
LIGAND
   54    56     1     0     0
SMALL
No Charge or Current Charge


@<TRIPOS>ATOM
      1 N           25.2760    -1.1690    35.1390 nb         1 UNL      -0.197100
      2 C           22.6470     1.7330    38.7140 c3         1 UNL       0.031700
      3 H           22.5980     1.7950    39.8140 h1         1 UNL       0.052300
      4 N1          23.4030     0.4990    38.3800 na         1 UNL      -0.312300
      5 C1          23.9850     0.0940    37.2170 ca         1 UNL       0.167500
      6 N2          23.9440     0.6800    35.8860 nb         1 UNL      -0.194700
      7 C           24.6310     0.0420    34.8920 ca         0 ACE       0.219200
      8 C2          25.3300    -1.7820    36.3630 ca         1 UNL       0.155800
      9 C3          24.7030    -1.1680    37.4670 ca         1 UNL       0.147900
     10 N3          24.5060    -1.4480    38.7840 nc         1 UNL      -0.230600
     11 C4          23.7470    -0.4480    39.3040 cc         1 UNL       0.098600
     12 H3          23.4440    -0.4050    40.3500 h5         1 UNL       0.102900
     13 N4          25.9890    -2.9740    36.5700 nh         1 UNL      -0.297500
     14 H4          25.8480    -3.4500    37.4720 hn         1 UNL       0.153600
     15 C5          26.8160    -3.5670    35.6610 ca         1 UNL       0.033800
     16 C6          28.1070    -3.9710    36.0580 ca         1 UNL      -0.039600
     17 H5          28.4200    -3.8420    37.0940 ha         1 UNL       0.063600
     18 C7          28.9820    -4.5320    35.1390 ca         1 UNL      -0.044500
     19 H6          29.9760    -4.8530    35.4520 ha         1 UNL       0.062700
     20 C8          28.5780    -4.6840    33.7990 ca         1 UNL       0.081500
     21 C9          27.2240    -4.2230    33.3810 ca         1 UNL       0.056800
     22 Cl          26.7410    -4.3360    31.9420 cl         1 UNL      -0.082600
     23 C10         26.3940    -3.6880    34.3530 ca         1 UNL      -0.021400
     24 H7          25.3920    -3.3570    34.0800 ha         1 UNL       0.065100
     25 C11         29.5100    -5.2780    32.7970 c          1 UNL       0.387900
     26 O           30.1350    -6.3150    33.0750 o          1 UNL      -0.240500
     27 O1          29.6670    -4.7350    31.6930 o          1 UNL      -0.240500
     28 N5          24.6340     0.5440    33.6180 nh         1 UNL      -0.308100
     29 H8          24.1600     1.4270    33.3810 hn         1 UNL       0.149300
     30 CA          25.3470    -0.2440    32.6130 c3         1 UNL       0.048700
     31 HA          26.1340    -0.7920    33.1610 h1         1 UNL       0.052300
     32 CB          26.2920     0.5610    31.6970 c3         1 UNL      -0.026100
     33 HB          27.3030     0.1300    31.8670 hc         1 UNL       0.031400
     34 CG1         26.4770     2.0350    32.1370 c3         1 UNL      -0.060900
     35 HG11        27.2690     2.5210    31.5430 hc         1 UNL       0.023300
     36 HG12        25.5580     2.6270    32.0090 hc         1 UNL       0.023300
     37 HG13        26.7810     2.0920    33.1960 hc         1 UNL       0.023300
     38 CG2         26.0990     0.3400    30.2020 c3         1 UNL      -0.060900
     39 HG21        26.7740     0.9980    29.6270 hc         1 UNL       0.023300
     40 HG22        26.3560    -0.6900    29.9040 hc         1 UNL       0.023300
     41 HG23        25.0730     0.5570    29.8650 hc         1 UNL       0.023300
     42 C12         24.5370    -1.3740    31.9510 c3         1 UNL       0.062800
     43 H1          24.5140    -2.2680    32.5820 h1         1 UNL       0.057600
     44 H2          24.9120    -1.6930    30.9680 h1         1 UNL       0.057600
     45 O2          23.2040    -0.9450    31.8650 oh         1 UNL      -0.393200
     46 H9          23.1740     0.0850    31.8530 ho         1 UNL       0.209500
     47 C13         23.4690     2.8820    38.1590 c3         1 UNL      -0.044400
     48 H10         23.0410     3.8420    38.4940 hc         1 UNL       0.024900
     49 H11         24.5160     2.8550    38.5030 hc         1 UNL       0.024900
     50 H12         23.4720     2.8980    37.0590 hc         1 UNL       0.024900
     51 C14         21.2420     1.8350    38.1350 c3         1 UNL      -0.044400
     52 H13         20.8010     2.7970    38.4430 hc         1 UNL       0.024900
     53 H14         21.2590     1.7960    37.0340 hc         1 UNL       0.024900
     54 H15         20.5790     1.0290    38.4850 hc         1 UNL       0.024900
@<TRIPOS>BOND
     1     1     7 ar  
     2     1     8 ar  
     3     2     4 1   
     4     2    47 1   
     5     2    51 1   
     6     2     3 1   
     7     4     5 1   
     8     4    11 2   
     9     5     6 ar  
    10     5     9 ar  
    11     6     7 ar  
    12     7    28 1   
    13     8     9 ar  
    14     8    13 1   
    15     9    10 2   
    16    10    11 1   
    17    11    12 1   
    18    13    15 1   
    19    13    14 1   
    20    15    16 ar  
    21    15    23 ar  
    22    16    18 ar  
    23    16    17 1   
    24    18    20 ar  
    25    18    19 1   
    26    20    21 ar  
    27    20    25 1   
    28    21    22 1   
    29    21    23 ar  
    30    23    24 1   
    31    25    26 1   
    32    25    27 1   
    33    28    30 1   
    34    28    29 1   
    35    30    32 1   
    36    30    42 1   
    37    30    31 1   
    38    32    34 1   
    39    32    38 1   
    40    32    33 1   
    41    34    35 1   
    42    34    36 1   
    43    34    37 1   
    44    38    39 1   
    45    38    40 1   
    46    38    41 1   
    47    42    45 1   
    48    42    43 1   
    49    42    44 1   
    50    45    46 1   
    51    47    48 1   
    52    47    49 1   
    53    47    50 1   
    54    51    52 1   
    55    51    53 1   
    56    51    54 1   
@<TRIPOS>SUBSTRUCTURE
     1 UNL         1 TEMP              0 ****  ****    0 ROOT
