REMARK  7 active torsions:
REMARK  status: ('A' for Active; 'I' for Inactive)
REMARK    1  A    between atoms: N_1  and  C5_15 
REMARK    2  A    between atoms: C3_9  and  N3_10 
REMARK    3  A    between atoms: C5_15  and  C6_16 
REMARK    4  A    between atoms: C6_16  and  C7_17 
REMARK    5  A    between atoms: C7_17  and  C8_18 
REMARK    6  A    between atoms: C8_18  and  C9_19 
REMARK    7  A    between atoms: C9_19  and  P_22 
ROOT
ATOM      1  N   UNL d          72.365  46.488  50.086  0.00  0.00    -0.324 N 
ATOM      2  C   UNL d          71.103  46.989  50.343  0.00  0.00     0.212 A 
ATOM      3  N1  UNL d          71.051  48.270  50.089  0.00  0.00    -0.234 NA
ATOM      4  C1  UNL d          72.295  48.654  49.653  0.00  0.00     0.172 A 
ATOM      5  C2  UNL d          72.805  49.945  49.238  0.00  0.00     0.281 A 
ATOM      6  O   UNL d          72.175  51.016  49.191  0.00  0.00    -0.265 OA
ATOM      7  N2  UNL d          74.180  49.912  48.854  0.00  0.00    -0.292 N 
ATOM      8  H1  UNL d          74.617  50.792  48.544  0.00  0.00     0.172 HD
ATOM      9  C3  UNL d          74.978  48.745  48.873  0.00  0.00     0.204 A 
ATOM     10  N4  UNL d          74.486  47.515  49.270  0.00  0.00    -0.195 NA
ATOM     11  C4  UNL d          73.145  47.550  49.644  0.00  0.00     0.169 A 
ENDROOT
BRANCH   1  12
ATOM     12  C5  UNL d          72.650  45.132  50.212  0.00  0.00     0.131 C 
BRANCH  12  13
ATOM     13  C6  UNL d          73.407  44.840  51.534  0.00  0.00     0.020 C 
BRANCH  13  14
ATOM     14  C7  UNL d          74.364  43.642  51.335  0.00  0.00     0.008 C 
BRANCH  14  15
ATOM     15  C8  UNL d          73.601  42.374  50.835  0.00  0.00     0.095 C 
BRANCH  15  16
ATOM     16  C9  UNL d          74.471  41.099  50.988  0.00  0.00     0.353 C 
ATOM     17  F   UNL d          74.494  40.740  52.283  0.00  0.00    -0.191 F 
ATOM     18  F1  UNL d          75.727  41.368  50.597  0.00  0.00    -0.191 F 
BRANCH  16  19
ATOM     19  P   UNL d          73.918  39.967  50.136  0.00  0.00     0.334 P 
ATOM     20  O1  UNL d          72.453  39.805  50.364  0.00  0.00    -0.636 OA
ATOM     21  O2  UNL d          74.170  40.264  48.697  0.00  0.00    -0.636 OA
ATOM     22  O3  UNL d          74.621  38.686  50.498  0.00  0.00    -0.636 OA
ENDBRANCH  16  19
ENDBRANCH  15  16
ENDBRANCH  14  15
ENDBRANCH  13  14
ENDBRANCH  12  13
ENDBRANCH   1  12
BRANCH   9  23
ATOM     23  N3  UNL d          76.284  48.848  48.480  0.00  0.00    -0.369 N 
ATOM     24  H2  UNL d          76.890  48.015  48.483  0.00  0.00     0.159 HD
ATOM     25  H3  UNL d          76.662  49.758  48.181  0.00  0.00     0.159 HD
ENDBRANCH   9  23
TORSDOF 7
