@<TRIPOS>MOLECULE
LIGAND
   34    35     1     0     0
SMALL
No Charge or Current Charge


@<TRIPOS>ATOM
      1 N           72.3650    46.4880    50.0860 na         1 UNL      -0.314800
      2 C           71.1030    46.9890    50.3430 cc         1 UNL       0.098400
      3 H           70.2640    46.3960    50.7080 h5         1 UNL       0.102900
      4 N1          71.0510    48.2700    50.0890 nd         1 UNL      -0.228600
      5 C1          72.2950    48.6540    49.6530 cd         1 UNL       0.172000
      6 C2          72.8050    49.9450    49.2380 c          1 UNL       0.280300
      7 O           72.1750    51.0160    49.1910 o          1 UNL      -0.265400
      8 N2          74.1800    49.9120    48.8540 n          1 UNL      -0.293400
      9 H1          74.6170    50.7920    48.5440 hn         1 UNL       0.171600
     10 C3          74.9780    48.7450    48.8730 cd         1 UNL       0.195000
     11 N3          76.2840    48.8480    48.4800 nh         1 UNL      -0.328900
     12 H2          76.8900    48.0150    48.4830 hn         1 UNL       0.145100
     13 H3          76.6620    49.7580    48.1810 hn         1 UNL       0.145100
     14 N4          74.4860    47.5150    49.2700 nc         1 UNL      -0.196400
     15 C4          73.1450    47.5500    49.6440 cc         1 UNL       0.169100
     16 C5          72.6500    45.1320    50.2120 c3         1 UNL       0.026100
     17 H4          73.2990    44.8190    49.3730 h1         1 UNL       0.049300
     18 H5          71.7270    44.5300    50.1620 h1         1 UNL       0.049300
     19 C6          73.4070    44.8400    51.5340 c3         1 UNL      -0.034700
     20 H6          72.7060    44.6280    52.3570 hc         1 UNL       0.028200
     21 H7          74.0020    45.7180    51.8430 hc         1 UNL       0.028200
     22 C7          74.3640    43.6420    51.3350 c3         1 UNL      -0.045600
     23 H8          74.8750    43.4110    52.2860 hc         1 UNL       0.026800
     24 H9          75.1530    43.9040    50.6080 hc         1 UNL       0.026800
     25 C8          73.6010    42.3740    50.8350 c3         1 UNL       0.017800
     26 H10         73.3160    42.5260    49.7780 hc         1 UNL       0.032700
     27 H11         72.6580    42.2500    51.3970 hc         1 UNL       0.032700
     28 C9          74.4710    41.0990    50.9880 c3         1 UNL       0.299000
     29 F           74.4940    40.7400    52.2830 f          1 UNL      -0.197400
     30 F1          75.7270    41.3680    50.5970 f          1 UNL      -0.197400
     31 P           73.9180    39.9670    50.1360 p5         1 UNL       0.178100
     32 O1          72.4530    39.8050    50.3640 o          1 UNL      -0.454700
     33 O2          74.1700    40.2640    48.6970 o          1 UNL      -0.353600
     34 O3          74.6210    38.6860    50.4980 o          1 UNL      -0.353600
@<TRIPOS>BOND
     1     1     2 1   
     2     1    15 1   
     3     1    16 1   
     4     2     4 2   
     5     2     3 1   
     6     4     5 1   
     7     5     6 1   
     8     5    15 2   
     9     6     7 2   
    10     6     8 1   
    11     8    10 1   
    12     8     9 1   
    13    10    11 1   
    14    10    14 2   
    15    11    12 1   
    16    11    13 1   
    17    14    15 1   
    18    16    19 1   
    19    16    17 1   
    20    16    18 1   
    21    19    22 1   
    22    19    20 1   
    23    19    21 1   
    24    22    25 1   
    25    22    23 1   
    26    22    24 1   
    27    25    28 1   
    28    25    26 1   
    29    25    27 1   
    30    28    29 1   
    31    28    30 1   
    32    28    31 1   
    33    31    32 1   
    34    31    33 1   
    35    31    34 1   
@<TRIPOS>SUBSTRUCTURE
     1 UNL         1 TEMP              0 ****  ****    0 ROOT
