@<TRIPOS>MOLECULE
LIGAND
   35    37     1     0     0
SMALL
No Charge or Current Charge


@<TRIPOS>ATOM
      1 S           36.3550    19.0670    60.8670 ss         1 UNL      -0.060500
      2 C           35.7380    19.4150    59.2920 cc         1 UNL      -0.003000
      3 H           34.9480    20.1330    59.0720 h4         1 UNL       0.070900
      4 C1          36.3890    18.6550    58.3640 cd         1 UNL       0.036800
      5 H1          36.1590    18.7120    57.3000 h4         1 UNL       0.083500
      6 N           37.3530    17.8140    58.8620 nd         1 UNL      -0.233000
      7 C2          37.4460    17.9280    60.1940 cc         1 UNL       0.164600
      8 N1          38.3390    17.1720    60.8990 n          1 UNL      -0.260600
      9 H2          38.8840    16.4920    60.3500 hn         1 UNL       0.157100
     10 C3          38.6150    17.2040    62.3110 c          1 UNL       0.251500
     11 O           38.0210    17.9870    63.0650 o          1 UNL      -0.269700
     12 C4          40.4410    16.3620    64.1070 ca         1 UNL       0.039600
     13 C5          39.6630    16.2270    62.8870 ca         1 UNL       0.058900
     14 C6          39.8660    15.0370    62.0990 ca         1 UNL      -0.031200
     15 H3          39.2970    14.9030    61.1790 ha         1 UNL       0.063800
     16 C7          40.7850    14.0430    62.4920 ca         1 UNL       0.051500
     17 C8          41.5420    14.1920    63.6880 ca         1 UNL       0.138900
     18 F           42.4410    13.2470    64.0960 f          1 UNL      -0.204300
     19 C9          41.3620    15.3510    64.4840 ca         1 UNL      -0.003900
     20 H4          41.9410    15.4670    65.4000 ha         1 UNL       0.066500
     21 S1          40.9350    12.6300    61.4450 ss         1 UNL      -0.048800
     22 N2          42.7210    10.8290    62.4010 na         1 UNL      -0.328400
     23 C10         42.5260    11.8870    61.5220 cc         1 UNL       0.173500
     24 N3          43.5690    12.3250    60.7380 nd         1 UNL      -0.230000
     25 C11         44.5500    11.4410    61.1650 cd         1 UNL       0.046600
     26 H5          45.5740    11.4310    60.7910 h4         1 UNL       0.084500
     27 C12         44.0570    10.5650    62.1370 cc         1 UNL       0.024700
     28 H6          44.6420     9.7830    62.6210 h4         1 UNL       0.082500
     29 C13         41.7820    10.1760    63.3410 c3         1 UNL       0.013700
     30 H7          41.0980    10.9210    63.7480 h1         1 UNL       0.045600
     31 H8          41.2130     9.4100    62.8140 h1         1 UNL       0.045600
     32 H9          42.3430     9.7150    64.1540 h1         1 UNL       0.045600
     33 N4          40.3410    17.4110    64.9280 nh         1 UNL      -0.357300
     34 H10         40.9180    17.4550    65.7800 hn         1 UNL       0.142300
     35 H11         39.6870    18.1760    64.7090 hn         1 UNL       0.142300
@<TRIPOS>BOND
     1     1     2 1   
     2     1     7 1   
     3     2     4 2   
     4     2     3 1   
     5     4     6 1   
     6     4     5 1   
     7     6     7 2   
     8     7     8 1   
     9     8    10 1   
    10     8     9 1   
    11    10    11 2   
    12    10    13 1   
    13    12    13 ar  
    14    12    19 ar  
    15    12    33 1   
    16    13    14 ar  
    17    14    16 ar  
    18    14    15 1   
    19    16    17 ar  
    20    16    21 1   
    21    17    18 1   
    22    17    19 ar  
    23    19    20 1   
    24    21    23 1   
    25    22    23 1   
    26    22    27 1   
    27    22    29 1   
    28    23    24 2   
    29    24    25 1   
    30    25    27 2   
    31    25    26 1   
    32    27    28 1   
    33    29    30 1   
    34    29    31 1   
    35    29    32 1   
    36    33    34 1   
    37    33    35 1   
@<TRIPOS>SUBSTRUCTURE
     1 UNL         1 TEMP              0 ****  ****    0 ROOT
