@<TRIPOS>MOLECULE
LIGAND
   52    53     1     0     0
SMALL
No Charge or Current Charge


@<TRIPOS>ATOM
      1 C           33.9140    -9.4170    64.8000 ca         1 UNL      -0.037700
      2 H           34.7670    -8.7680    64.5990 ha         1 UNL       0.063700
      3 C1          32.6210    -9.0360    64.3580 ca         1 UNL       0.057700
      4 C2          31.5040    -9.8770    64.6320 ca         1 UNL       0.049900
      5 C3          31.7220   -11.0950    65.3350 ca         1 UNL      -0.024900
      6 H1          30.8780   -11.7500    65.5500 ha         1 UNL       0.064500
      7 C4          33.0130   -11.4650    65.7570 ca         1 UNL       0.065000
      8 C5          34.1040   -10.6170    65.4910 ca         1 UNL      -0.045800
      9 H2          35.1030   -10.8980    65.8260 ha         1 UNL       0.062600
     10 C6          33.2040   -12.7410    66.4500 c          1 UNL       0.386600
     11 O           32.3210   -13.7140    66.1440 o          1 UNL      -0.240600
     12 O1          34.1010   -12.9090    67.1950 o          1 UNL      -0.240600
     13 N           30.2750    -9.4810    64.1950 nh         1 UNL      -0.339500
     14 H3          30.2120    -8.5520    63.7550 hn         1 UNL       0.146400
     15 C7          29.0320   -10.2580    64.2940 c3         1 UNL       0.020200
     16 H4          29.1460   -11.0470    65.0480 h1         1 UNL       0.049700
     17 C8          28.7160   -10.8760    62.9100 c3         1 UNL      -0.037400
     18 H5          29.6180   -10.8630    62.2780 hc         1 UNL       0.028000
     19 H6          27.9550   -10.3050    62.3580 hc         1 UNL       0.028000
     20 C9          27.9150    -9.3170    64.8210 c3         1 UNL      -0.037400
     21 H7          28.2060    -8.9490    65.8220 hc         1 UNL       0.028000
     22 H8          27.0050    -9.9250    64.9700 hc         1 UNL       0.028000
     23 C10         28.2790   -12.3520    62.9670 c3         1 UNL      -0.063600
     24 H9          28.0880   -12.7530    61.9590 hc         1 UNL       0.023000
     25 H10         29.0600   -12.9760    63.4350 hc         1 UNL       0.023000
     26 H11         27.3570   -12.4780    63.5590 hc         1 UNL       0.023000
     27 C11         27.5770    -8.1140    63.9220 c3         1 UNL      -0.063600
     28 H12         26.8050    -7.4910    64.4060 hc         1 UNL       0.023000
     29 H13         28.4540    -7.4680    63.7590 hc         1 UNL       0.023000
     30 H14         27.1790    -8.4150    62.9420 hc         1 UNL       0.023000
     31 N1          32.4790    -7.8500    63.6470 n          1 UNL      -0.263200
     32 C12         33.0240    -7.6000    62.2720 c3         1 UNL       0.050200
     33 C13         32.0750    -6.4670    61.7890 c3         1 UNL      -0.022400
     34 H15         31.1890    -6.8740    61.2800 hc         1 UNL       0.029100
     35 H16         32.5630    -5.8000    61.0600 hc         1 UNL       0.029100
     36 C14         31.5810    -5.7250    63.0360 c3         1 UNL       0.026500
     37 H17         30.5200    -5.4530    63.0620 hc         1 UNL       0.035900
     38 H18         32.2020    -4.8720    63.3430 hc         1 UNL       0.035900
     39 C15         31.7640    -6.7950    64.0770 c          1 UNL       0.220400
     40 O2          31.2610    -6.6900    65.2020 o          1 UNL      -0.275200
     41 C16         34.5440    -7.1480    62.2720 c3         1 UNL       0.064200
     42 H19         34.7600    -6.6280    61.3220 h1         1 UNL       0.057800
     43 H20         35.2200    -8.0190    62.3220 h1         1 UNL       0.057800
     44 O3          34.8240    -6.2980    63.3880 oh         1 UNL      -0.393000
     45 H21         35.4680    -5.5490    63.0970 ho         1 UNL       0.209500
     46 C17         32.8670    -8.8250    61.3170 c3         1 UNL      -0.071700
     47 H22         33.4910    -9.6650    61.6560 hx         1 UNL       0.007100
     48 H23         33.2310    -8.5210    60.3240 hx         1 UNL       0.007100
     49 N2          31.5340    -9.3880    61.1180 n4         1 UNL       0.379600
     50 H24         31.5610   -10.2010    60.5160 hn         1 UNL      -0.090000
     51 H25         31.1530    -9.7250    62.0020 hn         1 UNL      -0.090000
     52 H26         30.8560    -8.7480    60.7330 hn         1 UNL      -0.090000
@<TRIPOS>BOND
     1     1     3 ar  
     2     1     8 ar  
     3     1     2 1   
     4     3     4 ar  
     5     3    31 1   
     6     4     5 ar  
     7     4    13 1   
     8     5     7 ar  
     9     5     6 1   
    10     7     8 ar  
    11     7    10 1   
    12     8     9 1   
    13    10    11 1   
    14    10    12 1   
    15    13    15 1   
    16    13    14 1   
    17    15    17 1   
    18    15    20 1   
    19    15    16 1   
    20    17    23 1   
    21    17    18 1   
    22    17    19 1   
    23    20    27 1   
    24    20    21 1   
    25    20    22 1   
    26    23    24 1   
    27    23    25 1   
    28    23    26 1   
    29    27    28 1   
    30    27    29 1   
    31    27    30 1   
    32    31    32 1   
    33    31    39 1   
    34    32    33 1   
    35    32    41 1   
    36    32    46 1   
    37    33    36 1   
    38    33    34 1   
    39    33    35 1   
    40    36    39 1   
    41    36    37 1   
    42    36    38 1   
    43    39    40 2   
    44    41    44 1   
    45    41    42 1   
    46    41    43 1   
    47    44    45 1   
    48    46    49 1   
    49    46    47 1   
    50    46    48 1   
    51    49    50 1   
    52    49    51 1   
    53    49    52 1   
@<TRIPOS>SUBSTRUCTURE
     1 UNL         1 TEMP              0 ****  ****    0 ROOT
