REMARK  0 active torsions:
REMARK  status: ('A' for Active; 'I' for Inactive)
ROOT
ATOM      1  O   PRO d          43.269  77.832  53.353  0.00  0.00    -0.261 OA
ATOM      2  C   PRO d          43.611  76.940  52.578  0.00  0.00     0.329 C 
ATOM      3 CA   PRO d          42.627  76.409  51.536  0.00  0.00     0.000 Ca
ATOM      4  HA  PRO d          42.764  76.927  50.569  0.00  0.00     0.000 HD
ATOM      5  CB  PRO d          41.186  76.481  52.044  0.00  0.00     0.000 C 
ATOM      6  CG  PRO d          40.515  75.497  51.083  0.00  0.00    -0.065 C 
ATOM      7 HG1  PRO d          40.512  75.935  50.067  0.00  0.00     0.033 Hg
ATOM      8 HG2  PRO d          39.472  75.233  51.314  0.00  0.00     0.033 Hg
ATOM      9 CD   PRO d          41.467  74.299  51.151  0.00  0.00     0.000 Cd
ATOM     10  HD1 PRO d          41.498  73.654  50.262  0.00  0.00     0.000 HD
ATOM     11  HD2 PRO d          41.256  73.665  52.029  0.00  0.00     0.000 HD
ATOM     12  N   PRO d          42.780  74.960  51.337  0.00  0.00    -0.098 N 
ATOM     13  C   GLY d          44.056  74.390  51.443  0.00  0.00     0.356 C 
ATOM     14  O   GLY d          44.198  73.176  51.299  0.00  0.00    -0.258 OA
ATOM     15 CA   GLY d          45.276  75.260  51.759  0.00  0.00     0.000 Ca
ATOM     16  HA1 GLY d          45.694  75.645  50.813  0.00  0.00     0.000 HD
ATOM     17  HA2 GLY d          46.008  74.604  52.248  0.00  0.00     0.000 HD
ATOM     18  N   GLY d          44.894  76.381  52.650  0.00  0.00    -0.259 N 
ATOM     19  H   GLY d          45.576  76.752  53.327  0.00  0.00     0.190 HD
ENDROOT
TORSDOF 0
