REMARK  4 active torsions:
REMARK  status: ('A' for Active; 'I' for Inactive)
REMARK    1  A    between atoms: O5*_1  and  C5*_3 
REMARK    2  A    between atoms: C5*_3  and  C4*_4 
REMARK    3  A    between atoms: C3*_6  and  O3*_7 
REMARK    4  A    between atoms: C1*_10  and  N1_11 
ROOT
ATOM      1  C4*  T1 d          35.632  29.877  58.618  0.00  0.00     0.176 C 
ATOM      2  O4*  T1 d          34.734  30.281  59.664  0.00  0.00    -0.356 OA
ATOM      3  C3*  T1 d          34.702  30.119  57.377  0.00  0.00     0.153 C 
ATOM      4  C2*  T1 d          34.102  31.482  57.837  0.00  0.00     0.088 C 
ATOM      5  C1*  T1 d          33.773  31.230  59.284  0.00  0.00     0.235 C 
ENDROOT
BRANCH   5   6
ATOM      6  N1   T1 d          33.911  32.363  60.242  0.00  0.00    -0.282 N 
ATOM      7  C2   T1 d          32.885  32.661  61.091  0.00  0.00     0.330 A 
ATOM      8  O2   T1 d          31.835  31.943  61.040  0.00  0.00    -0.246 OA
ATOM      9  N3   T1 d          32.948  33.678  61.964  0.00  0.00    -0.286 N 
ATOM     10  C4   T1 d          34.041  34.438  62.024  0.00  0.00     0.190 A 
ATOM     11  H3   T1 d          32.151  33.871  62.588  0.00  0.00     0.172 HD
ATOM     12  O4   T1 d          34.074  35.432  62.884  0.00  0.00    -0.171 OA
ATOM     13  C5   T1 d          35.137  34.169  61.168  0.00  0.00     0.008 A 
ATOM     14  C5M  T1 d          36.398  35.013  61.208  0.00  0.00     0.054 C 
ATOM     15  C6   T1 d          35.047  33.099  60.261  0.00  0.00     0.109 A 
ENDBRANCH   5   6
BRANCH   1  16
ATOM     16  C5*  T1 d          37.128  30.356  58.663  0.00  0.00     0.198 C 
BRANCH  16  17
ATOM     17  O5*  T1 d          37.269  31.636  58.112  0.00  0.00    -0.398 OA
ATOM     18  H5*  T1 d          38.191  32.020  58.365  0.00  0.00     0.209 HD
ENDBRANCH  16  17
ENDBRANCH   1  16
BRANCH   3  19
ATOM     19  O3*  T1 d          33.801  28.999  56.935  0.00  0.00    -0.393 OA
ATOM     20  H7   T1 d          32.872  29.377  56.701  0.00  0.00     0.210 HD
ENDBRANCH   3  19
TORSDOF 4
