REMARK  5 active torsions:
REMARK  status: ('A' for Active; 'I' for Inactive)
REMARK    1  A    between atoms: N_1  and  CA_5 
REMARK    2  A    between atoms: CA_5  and  C_6 
REMARK    3  A    between atoms: CA_5  and  CB_8 
REMARK    4  A    between atoms: CB_8  and  CG_9 
REMARK    5  A    between atoms: CZ_14  and  OH_15 
ROOT
ATOM      1  CB  TYR d   1       7.592  29.661  16.488  0.00  0.00     0.082 C 
ENDROOT
BRANCH   1   2
ATOM      2  CA  TYR d   1       6.854  28.331  16.296  0.00  0.00     0.287 C 
BRANCH   2   3
ATOM      3  N   TYR d   1       7.294  27.669  15.032  0.00  0.00    -0.065 N 
ATOM      4  H1  TYR d   1       8.255  27.729  14.761  0.00  0.00     0.275 HD
ATOM      5  H2  TYR d   1       7.004  26.705  15.016  0.00  0.00     0.275 HD
ATOM      6  H3  TYR d   1       6.669  28.085  14.333  0.00  0.00     0.275 HD
ENDBRANCH   2   3
BRANCH   2   7
ATOM      7  C   TYR d   1       5.354  28.594  16.240  0.00  0.00     0.204 C 
ATOM      8  O   TYR d   1       4.793  29.013  17.273  0.00  0.00    -0.646 OA
ATOM      9  OXT TYR d   1       4.769  28.398  15.154  0.00  0.00    -0.646 OA
ENDBRANCH   2   7
ENDBRANCH   1   2
BRANCH   1  10
ATOM     10  CG  TYR d   1       9.097  29.537  16.475  0.00  0.00    -0.056 A 
ATOM     11  CD1 TYR d   1       9.753  28.695  17.371  0.00  0.00     0.010 A 
ATOM     12  CE1 TYR d   1      11.139  28.575  17.361  0.00  0.00     0.037 A 
ATOM     13  CZ  TYR d   1      11.881  29.303  16.447  0.00  0.00     0.065 A 
ATOM     14  CE2 TYR d   1      11.252  30.145  15.547  0.00  0.00     0.037 A 
ATOM     15  CD2 TYR d   1       9.867  30.259  15.564  0.00  0.00     0.010 A 
BRANCH  13  16
ATOM     16  OH  TYR d   1      13.257  29.195  16.437  0.00  0.00    -0.361 OA
ATOM     17  HH  TYR d   1      13.524  28.217  16.256  0.00  0.00     0.217 HD
ENDBRANCH  13  16
ENDBRANCH   1  10
TORSDOF 5
