@<TRIPOS>MOLECULE
LIGAND
   48    53     1     0     0
SMALL
No Charge or Current Charge


@<TRIPOS>ATOM
      1 C           42.8220    37.8770    10.1470 ca         1 UNL      -0.059800
      2 C1          42.9660    38.2730    11.5040 ca         1 UNL      -0.061100
      3 C2          43.8200    37.6730    12.4150 ca         1 UNL      -0.052300
      4 C3          44.5670    36.6040    11.8900 ca         1 UNL       0.003200
      5 C4          45.5670    35.7220    12.5090 cc         1 UNL      -0.014700
      6 C5          45.9500    34.8780    11.5180 cd         1 UNL       0.045600
      7 N           45.3070    35.1450    10.3960 na         1 UNL      -0.356000
      8 C6          44.4430    36.1950    10.5540 ca         1 UNL       0.047000
      9 C7          43.5880    36.7990     9.6480 ca         1 UNL      -0.037800
     10 C8          46.9640    33.8340    11.7720 c3         1 UNL       0.092500
     11 N1          47.2580    33.5750    13.1710 n          1 UNL      -0.275800
     12 C9          48.1380    32.5760    13.3970 c          1 UNL       0.234400
     13 O           48.6650    31.9330    12.5250 o          1 UNL      -0.273800
     14 C10         48.4930    32.2400    14.7760 c3         1 UNL       0.091000
     15 N2          48.1260    33.1800    15.8350 n          1 UNL      -0.294200
     16 C11         47.2490    34.1540    15.6280 c          1 UNL       0.236600
     17 O1          46.8900    34.9790    16.4840 o          1 UNL      -0.273500
     18 C12         46.6300    34.3090    14.2750 c3         1 UNL       0.107400
     19 C13         46.0970    35.7020    13.9150 c3         1 UNL       0.001900
     20 C14         48.7160    33.0530    17.1550 c3         1 UNL       0.003700
     21 C15         48.2060    34.2980    10.9340 ca         1 UNL      -0.017500
     22 C16         48.7360    33.4820     9.8960 ca         1 UNL      -0.052700
     23 C17         49.8220    33.8410     9.1280 ca         1 UNL      -0.015800
     24 C18         50.4030    35.0570     9.4070 ca         1 UNL       0.166200
     25 O2          51.4800    35.6170     8.7840 os         1 UNL      -0.452600
     26 C19         51.8080    36.6900     9.6600 c3         1 UNL       0.233200
     27 O3          50.6580    37.0270    10.4910 os         1 UNL      -0.452600
     28 C20         49.9300    35.8680    10.3900 ca         1 UNL       0.166600
     29 C21         48.8280    35.5130    11.1710 ca         1 UNL      -0.010800
     30 H           42.1150    38.4310     9.4980 ha         1 UNL       0.061800
     31 H1          42.3460    39.1320    11.8420 ha         1 UNL       0.061800
     32 H2          43.9030    38.0120    13.4630 ha         1 UNL       0.062400
     33 H3          45.4560    34.6880     9.4880 hn         1 UNL       0.165700
     34 H4          43.5220    36.4330     8.6100 ha         1 UNL       0.063800
     35 H5          46.6100    32.8910    11.3210 h1         1 UNL       0.061600
     36 H6          45.6670    33.7610    14.4310 h1         1 UNL       0.060000
     37 H7          45.2990    35.9680    14.6270 hc         1 UNL       0.033700
     38 H8          46.8680    36.4870    14.0160 hc         1 UNL       0.033700
     39 H9          49.6710    33.6020    17.2240 h1         1 UNL       0.042900
     40 H10         48.0360    33.4240    17.9330 h1         1 UNL       0.042900
     41 H11         48.9190    31.9920    17.3720 h1         1 UNL       0.042900
     42 H12         48.2650    32.4910     9.7110 ha         1 UNL       0.062200
     43 H13         50.2010    33.1880     8.3270 ha         1 UNL       0.065500
     44 H14         52.1140    37.5770     9.0850 h2         1 UNL       0.116600
     45 H15         52.6450    36.3960    10.3200 h2         1 UNL       0.116600
     46 H16         48.4840    36.2070    11.9650 ha         1 UNL       0.065900
     47 H17         49.5880    32.0900    14.7870 h1         1 UNL       0.056000
     48 H18         48.0620    31.2420    14.9920 h1         1 UNL       0.056000
@<TRIPOS>BOND
     1     1     2 ar  
     2     1     9 ar  
     3     2     3 ar  
     4     3     4 ar  
     5     4     5 1   
     6     4     8 ar  
     7     5     6 2   
     8     5    19 1   
     9     6     7 1   
    10     6    10 1   
    11     7     8 1   
    12     8     9 ar  
    13    10    11 1   
    14    10    21 1   
    15    11    12 1   
    16    11    18 1   
    17    12    13 2   
    18    12    14 1   
    19    14    15 1   
    20    15    16 1   
    21    15    20 1   
    22    16    17 2   
    23    16    18 1   
    24    18    19 1   
    25    21    22 ar  
    26    21    29 ar  
    27    22    23 ar  
    28    23    24 ar  
    29    24    25 1   
    30    24    28 ar  
    31    25    26 1   
    32    26    27 1   
    33    27    28 1   
    34    28    29 ar  
    35     1    30 1   
    36     2    31 1   
    37     3    32 1   
    38     7    33 1   
    39     9    34 1   
    40    10    35 1   
    41    18    36 1   
    42    19    37 1   
    43    19    38 1   
    44    20    39 1   
    45    20    40 1   
    46    20    41 1   
    47    22    42 1   
    48    23    43 1   
    49    26    44 1   
    50    26    45 1   
    51    29    46 1   
    52    14    47 1   
    53    14    48 1   
@<TRIPOS>SUBSTRUCTURE
     1 UNL         1 TEMP              0 ****  ****    0 ROOT
