REMARK  1 active torsions:
REMARK  status: ('A' for Active; 'I' for Inactive)
REMARK    1  A    between atoms: C8_10  and  C15_21 
ROOT
ATOM      1  C   UNL d          42.822  37.877  10.147  0.00  0.00     0.002 A 
ATOM      2  C1  UNL d          42.966  38.273  11.504  0.00  0.00     0.001 A 
ATOM      3  C2  UNL d          43.820  37.673  12.415  0.00  0.00     0.014 A 
ATOM      4  C3  UNL d          44.567  36.604  11.890  0.00  0.00    -0.001 A 
ATOM      5  C4  UNL d          45.567  35.722  12.509  0.00  0.00    -0.018 A 
ATOM      6  C5  UNL d          45.950  34.878  11.518  0.00  0.00     0.045 A 
ATOM      7  N   UNL d          45.307  35.145  10.396  0.00  0.00    -0.356 N 
ATOM      8  C6  UNL d          44.443  36.195  10.554  0.00  0.00     0.043 A 
ATOM      9  C7  UNL d          43.588  36.799   9.648  0.00  0.00     0.030 A 
ATOM     10  C8  UNL d          46.964  33.834  11.772  0.00  0.00     0.172 C 
ATOM     11  N1  UNL d          47.258  33.575  13.171  0.00  0.00    -0.323 N 
ATOM     12  C9  UNL d          48.138  32.576  13.397  0.00  0.00     0.239 C 
ATOM     13  O   UNL d          48.665  31.933  12.525  0.00  0.00    -0.271 OA
ATOM     14  C10 UNL d          48.493  32.240  14.776  0.00  0.00     0.228 C 
ATOM     15  N2  UNL d          48.126  33.180  15.835  0.00  0.00    -0.346 N 
ATOM     16  C11 UNL d          47.249  34.154  15.628  0.00  0.00     0.243 C 
ATOM     17  O1  UNL d          46.890  34.979  16.484  0.00  0.00    -0.271 OA
ATOM     18  C12 UNL d          46.630  34.309  14.275  0.00  0.00     0.185 C 
ATOM     19  C13 UNL d          46.097  35.702  13.915  0.00  0.00     0.076 C 
ATOM     20  C14 UNL d          48.716  33.053  17.155  0.00  0.00     0.153 C 
ATOM     21  H3  UNL d          45.456  34.688   9.488  0.00  0.00     0.166 HD
ENDROOT
BRANCH  10  22
ATOM     22  C15 UNL d          48.206  34.298  10.934  0.00  0.00    -0.027 A 
ATOM     23  C16 UNL d          48.736  33.482   9.896  0.00  0.00     0.012 A 
ATOM     24  C17 UNL d          49.822  33.841   9.128  0.00  0.00     0.040 A 
ATOM     25  C18 UNL d          50.403  35.057   9.407  0.00  0.00     0.105 A 
ATOM     26  O2  UNL d          51.480  35.617   8.784  0.00  0.00    -0.323 OA
ATOM     27  C20 UNL d          49.930  35.868  10.390  0.00  0.00     0.105 A 
ATOM     28  C19 UNL d          51.808  36.690   9.660  0.00  0.00     0.352 C 
ATOM     29  O3  UNL d          50.658  37.027  10.491  0.00  0.00    -0.323 OA
ATOM     30  C21 UNL d          48.828  35.513  11.171  0.00  0.00     0.049 A 
ENDBRANCH  10  22
TORSDOF 1
