@<TRIPOS>MOLECULE
LIGAND
   67    69     1     0     0
SMALL
No Charge or Current Charge


@<TRIPOS>ATOM
      1 O           11.7260    38.9400    27.7690 oh         1 UNL      -0.505900
      2 H           11.7930    39.9500    27.5780 ho         1 UNL       0.292200
      3 C           12.2260    38.6600    29.1430 cc         1 UNL       0.133300
      4 C1          11.5030    39.1320    30.2560 cd         1 UNL       0.001600
      5 H1          10.5840    39.6980    30.1080 ha         1 UNL       0.067300
      6 C2          11.9720    38.8700    31.5710 cd         1 UNL       0.031400
      7 N           11.2170    39.3730    32.6990 nh         1 UNL      -0.329200
      8 H2          11.5380    39.1910    33.6600 hn         1 UNL       0.147100
      9 C3           9.9900    40.1450    32.4640 c3         1 UNL       0.127400
     10 H3           9.3880    39.7170    31.6530 h1         1 UNL       0.064600
     11 C4           9.1220    40.2060    33.6840 c          1 UNL       0.256900
     12 O1           9.4600    39.6850    34.7550 o          1 UNL      -0.271800
     13 N1           7.9750    40.8520    33.5540 n          1 UNL      -0.183700
     14 H4           7.7480    41.2610    32.6360 hn         1 UNL       0.176600
     15 S            6.8740    41.0420    34.7960 sy         1 UNL       0.074500
     16 O2           6.6940    39.7880    35.4670 o          1 UNL      -0.149900
     17 O3           5.6430    41.5490    34.2790 o          1 UNL      -0.149900
     18 C5           7.6010    42.2020    35.8630 ca         1 UNL       0.110300
     19 C6           7.4210    42.1260    37.2710 ca         1 UNL      -0.035000
     20 H5           6.8190    41.3300    37.7090 ha         1 UNL       0.063700
     21 C7           8.0430    43.1110    38.1080 ca         1 UNL      -0.058200
     22 H6           7.9130    43.0660    39.1890 ha         1 UNL       0.061900
     23 C8           8.8330    44.1520    37.5280 ca         1 UNL      -0.040900
     24 H7           9.3020    44.8990    38.1690 ha         1 UNL       0.063600
     25 C9           9.0090    44.2170    36.1150 ca         1 UNL       0.026400
     26 N2           9.7480    45.1880    35.5680 nh         1 UNL      -0.357900
     27 H8           9.8700    45.2280    34.5460 hn         1 UNL       0.142300
     28 H9          10.1950    45.8960    36.1690 hn         1 UNL       0.142300
     29 C10          8.3940    43.2450    35.2870 ca         1 UNL      -0.014400
     30 H10          8.5260    43.2920    34.2060 ha         1 UNL       0.065500
     31 C11         10.4210    41.6170    32.1940 ca         1 UNL       0.023900
     32 C12         10.0160    42.2660    30.9990 ca         1 UNL       0.170400
     33 F            9.2580    41.6260    30.0960 f          1 UNL      -0.201300
     34 C13         10.4050    43.5880    30.7500 ca         1 UNL       0.159300
     35 O4           9.9820    44.2400    29.4940 os         1 UNL      -0.489200
     36 C14         10.6270    45.6530    29.3720 c3         1 UNL       0.086900
     37 H11         11.7170    45.5400    29.4190 h1         1 UNL       0.069400
     38 H12         10.2370    46.2790    30.1850 h1         1 UNL       0.069400
     39 C15         10.2300    46.2620    28.0270 c3         1 UNL      -0.030700
     40 H13         10.6570    47.2680    27.8880 hc         1 UNL       0.026200
     41 H14         10.5790    45.6240    27.2000 hc         1 UNL       0.026200
     42 H15          9.1330    46.3430    27.9550 hc         1 UNL       0.026200
     43 C16         11.2030    44.2880    31.6810 ca         1 UNL       0.024700
     44 H16         11.5010    45.3160    31.4740 ha         1 UNL       0.069200
     45 C17         11.6170    43.6680    32.8750 ca         1 UNL       0.124500
     46 O5          12.4600    44.4650    33.8020 os         1 UNL      -0.492100
     47 C18         12.9390    43.6620    35.0230 c3         1 UNL       0.086800
     48 H17         13.3900    42.7260    34.6710 h1         1 UNL       0.069400
     49 H18         12.0740    43.4580    35.6680 h1         1 UNL       0.069400
     50 C19         13.9970    44.5050    35.7280 c3         1 UNL      -0.030700
     51 H19         14.4110    44.0040    36.6170 hc         1 UNL       0.026200
     52 H20         14.8280    44.7170    35.0360 hc         1 UNL       0.026200
     53 H21         13.5670    45.4670    36.0500 hc         1 UNL       0.026200
     54 C20         11.2340    42.3210    33.1480 ca         1 UNL      -0.011500
     55 H22         11.5540    41.8320    34.0680 ha         1 UNL       0.065800
     56 C21         13.1640    38.1350    31.7720 cd         1 UNL      -0.039800
     57 H23         13.5180    37.9330    32.7830 ha         1 UNL       0.063600
     58 C22         13.8970    37.6620    30.6540 cc         1 UNL      -0.041700
     59 H24         14.8170    37.0970    30.8070 ha         1 UNL       0.062800
     60 C23         13.4380    37.9210    29.3410 cc         1 UNL       0.102200
     61 C24         14.2090    37.4230    28.1890 c2         1 UNL       0.269700
     62 N3          15.3340    36.7390    28.3840 nh         1 UNL      -0.288300
     63 N4          13.7820    37.6560    26.9580 nh         1 UNL      -0.249600
     64 H25         14.3200    37.3080    26.1520 hn         1 UNL       0.288300
     65 H26         12.9110    38.1850    26.8060 hn         1 UNL       0.288300
     66 H27         15.8720    36.3920    27.5770 hn         1 UNL       0.300900
     67 H28         15.6670    36.5570    29.3420 hn         1 UNL       0.300900
@<TRIPOS>BOND
     1     1     3 1   
     2     1     2 1   
     3     3     4 2   
     4     3    60 1   
     5     4     6 1   
     6     4     5 1   
     7     6     7 2   
     8     6    56 1   
     9     7     9 1   
    10     7     8 1   
    11     9    11 1   
    12     9    31 1   
    13     9    10 1   
    14    11    12 2   
    15    11    13 1   
    16    13    15 1   
    17    13    14 1   
    18    15    16 2   
    19    15    17 2   
    20    15    18 1   
    21    18    19 ar  
    22    18    29 ar  
    23    19    21 ar  
    24    19    20 1   
    25    21    23 ar  
    26    21    22 1   
    27    23    25 ar  
    28    23    24 1   
    29    25    26 1   
    30    25    29 ar  
    31    26    27 1   
    32    26    28 1   
    33    29    30 1   
    34    31    32 ar  
    35    31    54 ar  
    36    32    33 1   
    37    32    34 ar  
    38    34    35 1   
    39    34    43 ar  
    40    35    36 1   
    41    36    39 1   
    42    36    37 1   
    43    36    38 1   
    44    39    40 1   
    45    39    41 1   
    46    39    42 1   
    47    43    45 ar  
    48    43    44 1   
    49    45    46 1   
    50    45    54 ar  
    51    46    47 1   
    52    47    50 1   
    53    47    48 1   
    54    47    49 1   
    55    50    51 1   
    56    50    52 1   
    57    50    53 1   
    58    54    55 1   
    59    56    58 2   
    60    56    57 1   
    61    58    60 1   
    62    58    59 1   
    63    60    61 2   
    64    61    62 1   
    65    61    63 1   
    66    63    64 1   
    67    63    65 1   
    68    62    66 1   
    69    62    67 1   
@<TRIPOS>SUBSTRUCTURE
     1 UNL         1 TEMP              0 ****  ****    0 ROOT
