@<TRIPOS>MOLECULE
LIGAND
   41    42     1     0     0
SMALL
No Charge or Current Charge


@<TRIPOS>ATOM
      1 C            9.2270    20.0170    27.7680 ca         1 UNL       0.105700
      2 C1           8.2930    19.4750    28.7070 ca         1 UNL      -0.029700
      3 H            7.7740    18.5410    28.4920 ha         1 UNL       0.064000
      4 C2           8.0500    20.1670    29.9210 ca         1 UNL      -0.013400
      5 C3           8.7620    21.3710    30.1500 ca         1 UNL       0.126400
      6 C4           9.7370    21.8950    29.2310 ca         1 UNL      -0.024300
      7 H1          10.2960    22.8010    29.4640 ha         1 UNL       0.064700
      8 C5           9.9470    21.2150    28.0390 ca         1 UNL      -0.032600
      9 H2          10.6620    21.5980    27.3110 ha         1 UNL       0.063800
     10 F            8.5230    22.0660    31.2740 f          1 UNL      -0.205200
     11 C6           7.0320    19.6580    30.9070 c3         1 UNL      -0.036900
     12 H3           6.2580    20.4170    31.1050 hc         1 UNL       0.027800
     13 H4           6.5310    18.7540    30.5340 hc         1 UNL       0.027800
     14 H5           7.5050    19.4100    31.8710 hc         1 UNL       0.027800
     15 S            9.4700    19.1960    26.2210 sy         1 UNL       0.059000
     16 N           10.4390    17.7900    26.5140 n3         1 UNL      -0.180500
     17 H6           9.9970    16.8760    26.6900 hn         1 UNL       0.148800
     18 C7          11.8990    17.9240    26.5070 c3         1 UNL       0.077100
     19 H7          12.1810    18.6110    25.6970 h1         1 UNL       0.054800
     20 C8          12.4690    18.4380    27.8460 c          1 UNL       0.074500
     21 N1          13.3900    19.4380    27.7230 n          1 UNL      -0.309800
     22 H8          13.6490    19.8030    26.7950 hn         1 UNL       0.154600
     23 O           13.9690    19.9520    28.8730 o          1 UNL      -0.423000
     24 O1          12.1600    17.9990    28.9170 o          1 UNL      -0.540500
     25 O2          10.3620    19.9620    25.4200 o          1 UNL      -0.153000
     26 O3           8.1790    18.7420    25.7310 o          1 UNL      -0.153000
     27 C9          12.6710    16.6260    26.2000 c3         1 UNL      -0.014000
     28 H9          12.3640    15.8940    26.9730 hc         1 UNL       0.032200
     29 C10         12.3710    15.9420    24.8220 c3         1 UNL      -0.024700
     30 H10         12.6140    16.6630    24.0180 hc         1 UNL       0.029100
     31 H11         11.2910    15.7380    24.7170 hc         1 UNL       0.029100
     32 C11         13.1600    14.6640    24.5620 c3         1 UNL       0.048000
     33 H12         13.0170    14.3060    23.5300 h1         1 UNL       0.056000
     34 H13         12.8390    13.8530    25.2430 h1         1 UNL       0.056000
     35 O4          14.5420    14.9270    24.7000 os         1 UNL      -0.379700
     36 C12         14.9420    15.4300    25.9930 c3         1 UNL       0.048000
     37 H14         16.0310    15.5730    25.9320 h1         1 UNL       0.056000
     38 H15         14.7430    14.6780    26.7790 h1         1 UNL       0.056000
     39 C13         14.2100    16.7480    26.3050 c3         1 UNL      -0.024700
     40 H16         14.5300    17.0880    27.3050 hc         1 UNL       0.029100
     41 H17         14.5600    17.5120    25.5860 hc         1 UNL       0.029100
@<TRIPOS>BOND
     1     1     2 ar  
     2     1     8 ar  
     3     1    15 1   
     4     2     4 ar  
     5     2     3 1   
     6     4     5 ar  
     7     4    11 1   
     8     5     6 ar  
     9     5    10 1   
    10     6     8 ar  
    11     6     7 1   
    12     8     9 1   
    13    11    12 1   
    14    11    13 1   
    15    11    14 1   
    16    15    16 1   
    17    15    25 2   
    18    15    26 2   
    19    16    18 1   
    20    16    17 1   
    21    18    20 1   
    22    18    27 1   
    23    18    19 1   
    24    20    21 1   
    25    20    24 2   
    26    21    23 1   
    27    21    22 1   
    28    27    29 1   
    29    27    39 1   
    30    27    28 1   
    31    29    32 1   
    32    29    30 1   
    33    29    31 1   
    34    32    35 1   
    35    32    33 1   
    36    32    34 1   
    37    35    36 1   
    38    36    39 1   
    39    36    37 1   
    40    36    38 1   
    41    39    40 1   
    42    39    41 1   
@<TRIPOS>SUBSTRUCTURE
     1 UNL         1 TEMP              0 ****  ****    0 ROOT
