REMARK  5 active torsions:
REMARK  status: ('A' for Active; 'I' for Inactive)
REMARK    1  A    between atoms: C_1  and  S_9 
REMARK    2  A    between atoms: S_9  and  N_10 
REMARK    3  A    between atoms: N_10  and  C7_12 
REMARK    4  A    between atoms: C7_12  and  C8_13 
REMARK    5  A    between atoms: C7_12  and  C9_20 
REMARK       I    between atoms: C8_13  and  N1_14 
ROOT
ATOM      1  N   UNL d          10.439  17.790  26.514  0.00  0.00    -0.301 N 
ATOM      2  H6  UNL d           9.997  16.876  26.690  0.00  0.00     0.173 HD
ENDROOT
BRANCH   1   3
ATOM      3  S   UNL d           9.470  19.196  26.221  0.00  0.00     0.259 S 
ATOM      4  O2  UNL d          10.362  19.962  25.420  0.00  0.00    -0.201 OA
ATOM      5  O3  UNL d           8.179  18.742  25.731  0.00  0.00    -0.201 OA
BRANCH   3   6
ATOM      6  C   UNL d           9.227  20.017  27.768  0.00  0.00     0.080 A 
ATOM      7  C1  UNL d           8.293  19.475  28.707  0.00  0.00     0.035 A 
ATOM      8  C2  UNL d           8.050  20.167  29.921  0.00  0.00    -0.022 A 
ATOM      9  C3  UNL d           8.762  21.371  30.150  0.00  0.00     0.122 A 
ATOM     10  C6  UNL d           7.032  19.658  30.907  0.00  0.00     0.051 C 
ATOM     11  C4  UNL d           9.737  21.895  29.231  0.00  0.00     0.044 A 
ATOM     12  F   UNL d           8.523  22.066  31.274  0.00  0.00    -0.206 F 
ATOM     13  C5  UNL d           9.947  21.215  28.039  0.00  0.00     0.028 A 
ENDBRANCH   3   6
ENDBRANCH   1   3
BRANCH   1  14
ATOM     14  C7  UNL d          11.899  17.924  26.507  0.00  0.00     0.191 C 
BRANCH  14  15
ATOM     15  C8  UNL d          12.469  18.438  27.846  0.00  0.00     0.267 C 
ATOM     16  N1  UNL d          13.390  19.438  27.723  0.00  0.00    -0.199 N 
ATOM     17  O   UNL d          13.969  19.952  28.873  0.00  0.00    -0.086 OA
ATOM     18  H8  UNL d          13.649  19.803  26.795  0.00  0.00     0.200 HD
ATOM     19  O1  UNL d          12.160  17.999  28.917  0.00  0.00    -0.269 OA
ENDBRANCH  14  15
BRANCH  14  20
ATOM     20  C9  UNL d          12.671  16.626  26.200  0.00  0.00     0.022 C 
ATOM     21  C10 UNL d          12.371  15.942  24.822  0.00  0.00     0.033 C 
ATOM     22  C11 UNL d          13.160  14.664  24.562  0.00  0.00     0.168 C 
ATOM     23  O4  UNL d          14.542  14.927  24.700  0.00  0.00    -0.391 OA
ATOM     24  C12 UNL d          14.942  15.430  25.993  0.00  0.00     0.168 C 
ATOM     25  C13 UNL d          14.210  16.748  26.305  0.00  0.00     0.033 C 
ENDBRANCH  14  20
ENDBRANCH   1  14
TORSDOF 5
