@<TRIPOS>MOLECULE
LIGAND
   38    41     1     0     0
SMALL
No Charge or Current Charge


@<TRIPOS>ATOM
      1 O           22.9990    37.7950    40.6810 o          1 UNL      -0.288200
      2 C           23.0680    37.9450    39.4470 c          1 UNL       0.210800
      3 C1          23.9040    37.2140    38.5620 ca         1 UNL       0.071800
      4 C2          25.0030    36.4870    39.0470 ca         1 UNL      -0.044000
      5 H           25.1800    36.4180    40.1200 ha         1 UNL       0.062800
      6 C3          25.8610    35.8590    38.1640 ca         1 UNL      -0.049500
      7 C4          27.0600    35.0770    38.6340 c3         1 UNL      -0.039700
      8 H1          27.1630    35.1050    39.7280 hc         1 UNL       0.027800
      9 H2          26.9800    34.0210    38.3290 hc         1 UNL       0.027800
     10 H3          27.9850    35.4830    38.1950 hc         1 UNL       0.027800
     11 C5          25.6730    35.9500    36.7440 ca         1 UNL      -0.054700
     12 H4          26.3620    35.4470    36.0660 ha         1 UNL       0.062200
     13 C6          23.7310    37.3010    37.1470 ca         1 UNL       0.186700
     14 C7          24.5960    36.6910    36.2360 ca         1 UNL      -0.009900
     15 H5          24.4390    36.7880    35.1620 ha         1 UNL       0.066100
     16 C8          22.3500    39.0850    38.8070 c3         1 UNL       0.234700
     17 C9          21.8050    38.6580    37.4350 c2         1 UNL       0.334000
     18 N           22.6760    37.9730    36.5960 ne         1 UNL      -0.041900
     19 O1          23.3890    40.1710    38.6920 oh         1 UNL      -0.370200
     20 H6          24.3260    39.7680    38.8370 ho         1 UNL       0.211500
     21 C10         21.0570    39.5530    39.5140 c3         1 UNL       0.031500
     22 H7          21.2370    40.2950    40.3050 hc         1 UNL       0.034000
     23 H8          20.5370    38.6980    39.9750 hc         1 UNL       0.034000
     24 C11         20.2420    40.0990    38.3440 c3         1 UNL       0.089300
     25 H9          20.4330    41.1820    38.2370 h1         1 UNL       0.073100
     26 H10         19.1540    39.9740    38.4740 h1         1 UNL       0.073100
     27 N1          20.7300    39.3780    37.1490 nh         1 UNL      -0.187500
     28 C12         20.1270    39.6390    35.8890 ca         1 UNL       0.120800
     29 C13         20.1720    38.5840    34.9500 ca         1 UNL      -0.016900
     30 H11         20.6860    37.6580    35.2080 ha         1 UNL       0.065800
     31 C14         19.5630    38.7090    33.6860 ca         1 UNL      -0.057900
     32 H12         19.6400    37.9130    32.9450 ha         1 UNL       0.061900
     33 C15         18.8640    39.8730    33.4120 ca         1 UNL      -0.061500
     34 H13         18.3670    39.9810    32.4480 ha         1 UNL       0.061800
     35 C16         18.7800    40.9220    34.3520 ca         1 UNL      -0.057900
     36 H14         18.2040    41.8180    34.1190 ha         1 UNL       0.061900
     37 C17         19.4380    40.8110    35.5870 ca         1 UNL      -0.016900
     38 H15         19.4100    41.6330    36.3020 ha         1 UNL       0.065800
@<TRIPOS>BOND
     1     1     2 2   
     2     2     3 1   
     3     2    16 1   
     4     3     4 ar  
     5     3    13 ar  
     6     4     6 ar  
     7     4     5 1   
     8     6     7 1   
     9     6    11 ar  
    10     7     8 1   
    11     7     9 1   
    12     7    10 1   
    13    11    14 ar  
    14    11    12 1   
    15    13    14 ar  
    16    13    18 1   
    17    14    15 1   
    18    16    17 1   
    19    16    19 1   
    20    16    21 1   
    21    17    18 2   
    22    17    27 1   
    23    19    20 1   
    24    21    24 1   
    25    21    22 1   
    26    21    23 1   
    27    24    27 1   
    28    24    25 1   
    29    24    26 1   
    30    27    28 1   
    31    28    29 ar  
    32    28    37 ar  
    33    29    31 ar  
    34    29    30 1   
    35    31    33 ar  
    36    31    32 1   
    37    33    35 ar  
    38    33    34 1   
    39    35    37 ar  
    40    35    36 1   
    41    37    38 1   
@<TRIPOS>SUBSTRUCTURE
     1 UNL         1 TEMP              0 ****  ****    0 ROOT
