@<TRIPOS>MOLECULE
LIGAND
   43    45     1     0     0
SMALL
No Charge or Current Charge


@<TRIPOS>ATOM
      1 C           -9.7390    55.1170    46.8920 ce         1 UNL      -0.026200
      2 H           -9.6630    55.0200    45.8090 ha         1 UNL       0.064400
      3 CA          -8.6220    54.7640    47.5790 cf         1 UNL       0.123500
      4 N           -8.4650    54.7280    49.0400 n          1 UNL      -0.275700
      5 H1          -8.5790    53.8220    49.5170 hn         1 UNL       0.155300
      6 C1          -8.1780    55.8220    49.8020 c          1 UNL       0.248400
      7 O           -8.0570    56.9560    49.3420 o          1 UNL      -0.269900
      8 C2         -11.0380    55.6110    47.3820 ca         1 UNL      -0.022800
      9 C3         -12.1670    55.7430    46.5440 ca         1 UNL      -0.051100
     10 H2         -12.1340    55.3720    45.5200 ha         1 UNL       0.062500
     11 C4         -13.4320    56.7680    48.3780 ca         1 UNL       0.128500
     12 C5         -11.1450    56.0490    48.6910 ca         1 UNL      -0.051100
     13 H3         -10.2850    55.9460    49.3520 ha         1 UNL       0.062500
     14 C6         -12.3060    56.6130    49.1890 ca         1 UNL      -0.018800
     15 H4         -12.3420    56.9410    50.2280 ha         1 UNL       0.065400
     16 C7         -14.8120    57.5690    50.2350 ca         1 UNL       0.142300
     17 C8         -14.5710    58.8680    50.7250 ca         1 UNL       0.060100
     18 C9         -14.8090    59.1780    52.0930 ca         1 UNL      -0.044200
     19 H5         -14.5860    60.1750    52.4730 ha         1 UNL       0.063000
     20 C10        -15.3330    58.1950    52.9560 ca         1 UNL      -0.060500
     21 H6         -15.5170    58.4350    54.0030 ha         1 UNL       0.061800
     22 C11        -15.6200    56.9020    52.4720 ca         1 UNL      -0.058200
     23 H7         -16.0470    56.1480    53.1330 ha         1 UNL       0.061900
     24 C12        -15.3480    56.5970    51.1260 ca         1 UNL      -0.018200
     25 H8         -15.5530    55.5920    50.7570 ha         1 UNL       0.065500
     26 C13         -7.4500    54.2820    46.7960 c          1 UNL       0.400400
     27 O1          -7.4970    54.3880    45.5530 o          1 UNL      -0.239200
     28 OXT         -6.4910    53.7290    47.3780 o          1 UNL      -0.239200
     29 C14         -8.0460    55.5360    51.2270 ca         1 UNL       0.037000
     30 C15         -7.2720    56.3900    52.0390 ca         1 UNL      -0.049600
     31 H9          -6.6470    57.1590    51.5860 ha         1 UNL       0.062500
     32 C16         -7.3110    56.2440    53.4370 ca         1 UNL      -0.061000
     33 H10         -6.7150    56.9000    54.0710 ha         1 UNL       0.061800
     34 C17         -8.1280    55.2410    54.0210 ca         1 UNL      -0.061700
     35 H11         -8.1920    55.1610    55.1060 ha         1 UNL       0.061800
     36 C18         -8.8600    54.3440    53.2080 ca         1 UNL      -0.061000
     37 H12         -9.4630    53.5570    53.6610 ha         1 UNL       0.061800
     38 C19         -8.8010    54.4780    51.8090 ca         1 UNL      -0.049600
     39 H13         -9.3330    53.7720    51.1710 ha         1 UNL       0.062500
     40 C20        -13.3460    56.3600    47.0400 ca         1 UNL      -0.018800
     41 H14        -14.1930    56.5180    46.3730 ha         1 UNL       0.065400
     42 O2         -14.6120    57.2860    48.8730 os         1 UNL      -0.454900
     43 Br         -14.0950    60.2100    49.5160 br         1 UNL      -0.046500
@<TRIPOS>BOND
     1     1     3 2   
     2     1     8 1   
     3     1     2 1   
     4     3     4 1   
     5     3    26 1   
     6     4     6 1   
     7     4     5 1   
     8     6     7 2   
     9     6    29 1   
    10     8     9 ar  
    11     8    12 ar  
    12     9    40 ar  
    13     9    10 1   
    14    11    14 ar  
    15    11    40 ar  
    16    11    42 1   
    17    12    14 ar  
    18    12    13 1   
    19    14    15 1   
    20    16    17 ar  
    21    16    24 ar  
    22    16    42 1   
    23    17    18 ar  
    24    17    43 1   
    25    18    20 ar  
    26    18    19 1   
    27    20    22 ar  
    28    20    21 1   
    29    22    24 ar  
    30    22    23 1   
    31    24    25 1   
    32    26    27 1   
    33    26    28 1   
    34    29    30 ar  
    35    29    38 ar  
    36    30    32 ar  
    37    30    31 1   
    38    32    34 ar  
    39    32    33 1   
    40    34    36 ar  
    41    34    35 1   
    42    36    38 ar  
    43    36    37 1   
    44    38    39 1   
    45    40    41 1   
@<TRIPOS>SUBSTRUCTURE
     1 UNL         1 TEMP              0 ****  ****    0 ROOT
