REMARK  7 active torsions:
REMARK  status: ('A' for Active; 'I' for Inactive)
REMARK    1  A    between atoms: C_1  and  CA_2 
REMARK    2  A    between atoms: C_1  and  C2_7 
REMARK    3  A    between atoms: CA_2  and  N_3 
REMARK    4  A    between atoms: CA_2  and  C13_18 
REMARK       I    between atoms: N_3  and  C1_5 
REMARK    5  A    between atoms: C1_5  and  C14_21 
REMARK    6  A    between atoms: C4_9  and  O2_28 
REMARK    7  A    between atoms: C7_12  and  O2_28 
ROOT
ATOM      1  C   UNL d          -9.739  55.117  46.892  0.00  0.00     0.012 C 
ENDROOT
BRANCH   1   2
ATOM      2 CA   UNL d          -8.622  54.764  47.579  0.00  0.00     0.000 Ca
BRANCH   2   3
ATOM      3  N   UNL d          -8.465  54.728  49.040  0.00  0.00    -0.263 N 
ATOM      4  C1  UNL d          -8.178  55.822  49.802  0.00  0.00     0.270 C 
ATOM      5  O   UNL d          -8.057  56.956  49.342  0.00  0.00    -0.266 OA
ATOM      6  H1  UNL d          -8.579  53.822  49.517  0.00  0.00     0.190 HD
BRANCH   4   7
ATOM      7  C14 UNL d          -8.046  55.536  51.227  0.00  0.00     0.033 A 
ATOM      8  C15 UNL d          -7.272  56.390  52.039  0.00  0.00     0.017 A 
ATOM      9  C16 UNL d          -7.311  56.244  53.437  0.00  0.00     0.001 A 
ATOM     10  C17 UNL d          -8.128  55.241  54.021  0.00  0.00     0.000 A 
ATOM     11  C18 UNL d          -8.860  54.344  53.208  0.00  0.00     0.001 A 
ATOM     12  C19 UNL d          -8.801  54.478  51.809  0.00  0.00     0.017 A 
ENDBRANCH   4   7
ENDBRANCH   2   3
BRANCH   2  13
ATOM     13  C13 UNL d          -7.450  54.282  46.796  0.00  0.00     0.279 C 
ATOM     14  O1  UNL d          -7.497  54.388  45.553  0.00  0.00    -0.639 OA
ATOM     15  OXT UNL d          -6.491  53.729  47.378  0.00  0.00    -0.639 OA
ENDBRANCH   2  13
ENDBRANCH   1   2
BRANCH   1  16
ATOM     16  C2  UNL d         -11.038  55.611  47.382  0.00  0.00    -0.036 A 
ATOM     17  C3  UNL d         -12.167  55.743  46.544  0.00  0.00     0.014 A 
ATOM     18  C20 UNL d         -13.346  56.360  47.040  0.00  0.00     0.038 A 
ATOM     19  C4  UNL d         -13.432  56.768  48.378  0.00  0.00     0.076 A 
ATOM     20  C6  UNL d         -12.306  56.613  49.189  0.00  0.00     0.038 A 
ATOM     21  C5  UNL d         -11.145  56.049  48.691  0.00  0.00     0.014 A 
BRANCH  19  22
ATOM     22  O2  UNL d         -14.612  57.286  48.873  0.00  0.00    -0.309 OA
BRANCH  22  23
ATOM     23  C7  UNL d         -14.812  57.569  50.235  0.00  0.00     0.093 A 
ATOM     24  C8  UNL d         -14.571  58.868  50.725  0.00  0.00     0.044 A 
ATOM     25  C9  UNL d         -14.809  59.178  52.093  0.00  0.00     0.022 A 
ATOM     26 Br   UNL d         -14.095  60.210  49.516  0.00  0.00    -0.048 Br
ATOM     27  C10 UNL d         -15.333  58.195  52.956  0.00  0.00     0.002 A 
ATOM     28  C11 UNL d         -15.620  56.902  52.472  0.00  0.00     0.003 A 
ATOM     29  C12 UNL d         -15.348  56.597  51.126  0.00  0.00     0.039 A 
ENDBRANCH  22  23
ENDBRANCH  19  22
ENDBRANCH   1  16
TORSDOF 7
