REMARK  6 active torsions:
REMARK  status: ('A' for Active; 'I' for Inactive)
REMARK    1  A    between atoms: C2_3  and  C6_7 
REMARK    2  A    between atoms: N_9  and  C7_10 
REMARK    3  A    between atoms: C9_12  and  C10_13 
REMARK    4  A    between atoms: N4_26  and  C18_29 
REMARK    5  A    between atoms: N4_26  and  C19_31 
REMARK    6  A    between atoms: C19_31  and  C20_32 
ROOT
ATOM      1  C6  UNL d           3.381  -1.479  19.543  0.00  0.00     0.074 A 
ATOM      2  N   UNL d           2.175  -2.989  20.849  0.00  0.00    -0.250 N 
ATOM      3  C8  UNL d           1.576  -1.634  22.778  0.00  0.00     0.178 C 
ATOM      4  C9  UNL d           2.908  -0.868  20.651  0.00  0.00     0.096 A 
ATOM      5  O   UNL d           3.097  -3.803  18.877  0.00  0.00    -0.266 OA
ATOM      6  C11 UNL d           2.895  -2.902  19.667  0.00  0.00     0.276 A 
ATOM      7  N1  UNL d           2.178  -1.731  21.466  0.00  0.00    -0.288 N 
ENDROOT
BRANCH   4   8
ATOM      8  C10 UNL d           3.075   0.531  21.058  0.00  0.00     0.106 A 
ATOM      9  N3  UNL d           3.228   0.820  22.359  0.00  0.00    -0.061 NA
ATOM     10  C18 UNL d           3.378   2.105  22.689  0.00  0.00     0.723 A 
ATOM     11  N5  UNL d           3.384   3.114  21.813  0.00  0.00    -0.075 NA
ATOM     12  C16 UNL d           3.229   2.809  20.514  0.00  0.00     0.139 A 
ATOM     13  C17 UNL d           3.069   1.514  20.085  0.00  0.00     0.054 A 
BRANCH  10  14
ATOM     14  N4  UNL d           3.537   2.465  23.989  0.00  0.00    -0.214 N 
ATOM     15  H19 UNL d           3.738   3.455  24.191  0.00  0.00     0.178 HD
BRANCH  14  16
ATOM     16  C19 UNL d           3.445   1.565  25.099  0.00  0.00     0.128 C 
ATOM     17  C21 UNL d           3.796   2.306  26.405  0.00  0.00     0.038 C 
BRANCH  16  18
ATOM     18  C20 UNL d           2.105   0.886  25.292  0.00  0.00    -0.035 A 
ATOM     19  C23 UNL d           2.063  -0.309  26.029  0.00  0.00     0.009 A 
ATOM     20  C26 UNL d           0.846  -0.952  26.222  0.00  0.00     0.001 A 
ATOM     21  C22 UNL d          -0.327  -0.429  25.695  0.00  0.00     0.000 A 
ATOM     22  C25 UNL d          -0.299   0.750  24.965  0.00  0.00     0.001 A 
ATOM     23  C24 UNL d           0.918   1.403  24.767  0.00  0.00     0.009 A 
ENDBRANCH  16  18
ENDBRANCH  14  16
ENDBRANCH  10  14
ENDBRANCH   4   8
BRANCH   1  24
ATOM     24  C2  UNL d           4.182  -1.073  18.382  0.00  0.00    -0.018 A 
ATOM     25  C   UNL d           5.449  -0.508  18.624  0.00  0.00     0.015 A 
ATOM     26  C3  UNL d           6.285  -0.091  17.586  0.00  0.00     0.043 A 
ATOM     27  C4  UNL d           5.810  -0.257  16.289  0.00  0.00     0.116 A 
ATOM     28  C1  UNL d           4.565  -0.810  16.006  0.00  0.00     0.043 A 
ATOM     29  F   UNL d           6.599   0.137  15.295  0.00  0.00    -0.206 F 
ATOM     30  C5  UNL d           3.737  -1.224  17.060  0.00  0.00     0.015 A 
ENDBRANCH   1  24
BRANCH   2  31
ATOM     31  C7  UNL d           1.480  -4.159  21.375  0.00  0.00     0.115 C 
ATOM     32  C14 UNL d           2.315  -5.420  21.132  0.00  0.00     0.055 C 
ATOM     33  C13 UNL d           1.536  -6.678  21.496  0.00  0.00     0.234 C 
ATOM     34  N2  UNL d           0.242  -6.707  20.816  0.00  0.00    -0.075 N 
ATOM     35  C12 UNL d          -0.590  -5.572  21.213  0.00  0.00     0.234 C 
ATOM     36  H16 UNL d           0.378  -6.703  19.811  0.00  0.00     0.277 HD
ATOM     37  H17 UNL d          -0.231  -7.586  20.997  0.00  0.00     0.277 HD
ATOM     38  C15 UNL d           0.081  -4.277  20.760  0.00  0.00     0.055 C 
ENDBRANCH   2  31
TORSDOF 6
