@<TRIPOS>MOLECULE
LIGAND
   60    63     1     0     0
SMALL
No Charge or Current Charge


@<TRIPOS>ATOM
      1 C           44.0410   110.8130    82.1470 ca         1 UNL      -0.044000
      2 C1          44.2610   111.3110    80.8040 ca         1 UNL      -0.057000
      3 H           43.4060   111.5150    80.1600 ha         1 UNL       0.062200
      4 C2          45.2100   110.5560    82.9790 ca         1 UNL      -0.058300
      5 H1          45.0750   110.1830    83.9940 ha         1 UNL       0.062000
      6 C3          45.6100   111.5430    80.3020 ca         1 UNL      -0.064600
      7 C4          46.5360   110.7870    82.4820 ca         1 UNL      -0.061300
      8 H2          47.3940   110.5870    83.1240 ha         1 UNL       0.061800
      9 C5          46.7450   111.2750    81.1590 ca         1 UNL      -0.060400
     10 H3          47.7580   111.4460    80.7940 ha         1 UNL       0.062000
     11 C6          45.8300   112.0660    78.9070 c3         1 UNL      -0.070000
     12 H4          46.8970   112.0620    78.6500 hx         1 UNL       0.009700
     13 H5          45.4610   113.0980    78.8150 hx         1 UNL       0.009700
     14 N           45.1380   111.2800    77.8400 n4         1 UNL       0.380800
     15 H6          45.3290   111.6380    76.9150 hn         1 UNL      -0.089600
     16 H7          45.4260   110.3110    77.8580 hn         1 UNL      -0.089600
     17 H8          44.1370   111.2830    77.9680 hn         1 UNL      -0.089600
     18 C7          42.0260   111.7750    83.5410 c3         1 UNL      -0.030300
     19 H9          42.6800   112.0750    84.3750 hc         1 UNL       0.028600
     20 H10         41.9150   112.6470    82.8740 hc         1 UNL       0.028600
     21 C8          40.6110   111.3840    84.1200 c3         1 UNL       0.015500
     22 H11         40.1920   112.2140    84.7000 h1         1 UNL       0.046500
     23 H12         40.6800   110.5030    84.7830 h1         1 UNL       0.046500
     24 C9          38.5650   111.7500    82.5500 c          1 UNL       0.248100
     25 O           37.9530   111.4380    81.5380 o          1 UNL      -0.269900
     26 C10         42.6420   110.5510    82.7440 c3         1 UNL      -0.013000
     27 H13         42.7440   109.7200    83.4660 hc         1 UNL       0.035000
     28 N1          39.7000   111.0510    82.9940 n          1 UNL      -0.297400
     29 C11         40.2150   109.8540    82.2560 c3         1 UNL       0.015500
     30 H14         39.4930   109.5670    81.4800 h1         1 UNL       0.046500
     31 H15         40.2520   109.0120    82.9720 h1         1 UNL       0.046500
     32 C12         41.6090   110.0850    81.6430 c3         1 UNL      -0.030300
     33 H16         41.9340   109.1550    81.1510 hc         1 UNL       0.028600
     34 H17         41.5090   110.8620    80.8680 hc         1 UNL       0.028600
     35 C13         37.9590   112.9180    83.2770 ca         1 UNL       0.055200
     36 C14         37.6670   114.1550    82.6070 ca         1 UNL      -0.043500
     37 H18         37.9040   114.2870    81.5510 ha         1 UNL       0.062900
     38 C15         37.6220   112.8260    84.6570 ca         1 UNL       0.039700
     39 H19         37.8380   111.8910    85.1740 h4         1 UNL       0.083700
     40 C16         37.0480   115.2260    83.3700 ca         1 UNL      -0.028200
     41 N2          37.0540   113.8200    85.3650 nb         1 UNL      -0.262200
     42 C17         36.6890   116.5330    82.7400 c3         1 UNL      -0.022200
     43 H20         37.1350   116.5970    81.7340 hc         1 UNL       0.031700
     44 H21         37.1270   117.3580    83.3290 hc         1 UNL       0.031700
     45 C18         36.7700   114.9800    84.7460 ca         1 UNL       0.030800
     46 H22         36.3020   115.7740    85.3280 h4         1 UNL       0.083200
     47 C19         35.1840   116.7610    82.6530 c3         1 UNL      -0.023600
     48 H23         35.0170   117.7830    82.2680 hc         1 UNL       0.031600
     49 H24         34.7580   116.7600    83.6710 hc         1 UNL       0.031600
     50 C20         34.3910   115.8010    81.8010 ca         1 UNL      -0.047000
     51 C21         34.2890   115.9720    80.3780 ca         1 UNL      -0.058600
     52 H25         34.7980   116.8090    79.9000 ha         1 UNL       0.062000
     53 C22         33.7020   114.6730    82.4240 ca         1 UNL      -0.058600
     54 H26         33.7680   114.5260    83.5020 ha         1 UNL       0.062000
     55 C23         33.5110   115.0380    79.5610 ca         1 UNL      -0.061500
     56 H27         33.4430   115.1800    78.4830 ha         1 UNL       0.061800
     57 C24         32.9400   113.7600    81.6260 ca         1 UNL      -0.061500
     58 H28         32.4300   112.9240    82.1050 ha         1 UNL       0.061800
     59 C25         32.8370   113.9310    80.1880 ca         1 UNL      -0.061700
     60 H29         32.2560   113.2290    79.5900 ha         1 UNL       0.061800
@<TRIPOS>BOND
     1     1     2 ar  
     2     1     4 ar  
     3     1    26 1   
     4     2     6 ar  
     5     2     3 1   
     6     4     7 ar  
     7     4     5 1   
     8     6     9 ar  
     9     6    11 1   
    10     7     9 ar  
    11     7     8 1   
    12     9    10 1   
    13    11    14 1   
    14    11    12 1   
    15    11    13 1   
    16    14    15 1   
    17    14    16 1   
    18    14    17 1   
    19    18    21 1   
    20    18    26 1   
    21    18    19 1   
    22    18    20 1   
    23    21    28 1   
    24    21    22 1   
    25    21    23 1   
    26    24    25 2   
    27    24    28 1   
    28    24    35 1   
    29    26    32 1   
    30    26    27 1   
    31    28    29 1   
    32    29    32 1   
    33    29    30 1   
    34    29    31 1   
    35    32    33 1   
    36    32    34 1   
    37    35    36 ar  
    38    35    38 ar  
    39    36    40 ar  
    40    36    37 1   
    41    38    41 ar  
    42    38    39 1   
    43    40    42 1   
    44    40    45 ar  
    45    41    45 ar  
    46    42    47 1   
    47    42    43 1   
    48    42    44 1   
    49    45    46 1   
    50    47    50 1   
    51    47    48 1   
    52    47    49 1   
    53    50    51 ar  
    54    50    53 ar  
    55    51    55 ar  
    56    51    52 1   
    57    53    57 ar  
    58    53    54 1   
    59    55    59 ar  
    60    55    56 1   
    61    57    59 ar  
    62    57    58 1   
    63    59    60 1   
@<TRIPOS>SUBSTRUCTURE
     1 UNL         1 TEMP              0 ****  ****    0 ROOT
