REMARK  7 active torsions:
REMARK  status: ('A' for Active; 'I' for Inactive)
REMARK    1  A    between atoms: O_2  and  C1_3 
REMARK    2  A    between atoms: C6_8  and  C7_9 
REMARK    3  A    between atoms: C8_10  and  C9_11 
REMARK       I    between atoms: C9_11  and  N_13 
REMARK    4  A    between atoms: N_13  and  C10_15 
REMARK    5  A    between atoms: C12_20  and  C13_21 
REMARK    6  A    between atoms: C16_25  and  O2_26 
REMARK    7  A    between atoms: C18_29  and  O3_30 
ROOT
ATOM      1  C7  UNL d          31.657   8.571  26.131  0.00  0.00     0.039 A 
ATOM      2  C8  UNL d          31.323   8.196  27.409  0.00  0.00     0.157 A 
ATOM      3  N1  UNL d          30.419   9.073  27.852  0.00  0.00    -0.168 NA
ATOM      4  N2  UNL d          30.147   9.948  26.981  0.00  0.00    -0.276 N 
ATOM      5  H13 UNL d          29.457  10.704  27.096  0.00  0.00     0.189 HD
ATOM      6  C12 UNL d          30.887   9.746  25.892  0.00  0.00     0.076 A 
ENDROOT
BRANCH   6   7
ATOM      7  C13 UNL d          30.896  10.509  24.724  0.00  0.00     0.028 A 
ATOM      8  C14 UNL d          32.085  11.007  24.224  0.00  0.00     0.043 A 
ATOM      9  C15 UNL d          32.098  11.791  23.059  0.00  0.00     0.068 A 
ATOM     10 Cl   UNL d          33.584  12.418  22.440  0.00  0.00    -0.081 Cl
ATOM     11  C16 UNL d          30.909  12.092  22.412  0.00  0.00     0.090 A 
ATOM     12  C17 UNL d          29.702  11.595  22.923  0.00  0.00     0.075 A 
ATOM     13  C18 UNL d          29.705  10.836  24.092  0.00  0.00     0.081 A 
BRANCH  11  14
ATOM     14  O2  UNL d          30.918  12.828  21.274  0.00  0.00    -0.359 OA
ATOM     15  H15 UNL d          31.448  13.697  21.431  0.00  0.00     0.217 HD
ENDBRANCH  11  14
BRANCH  13  16
ATOM     16  O3  UNL d          28.547  10.388  24.587  0.00  0.00    -0.360 OA
ATOM     17  H17 UNL d          27.924  11.185  24.779  0.00  0.00     0.217 HD
ENDBRANCH  13  16
ENDBRANCH   6   7
BRANCH   1  18
ATOM     18  C6  UNL d          32.579   7.936  25.264  0.00  0.00    -0.021 A 
ATOM     19  C3  UNL d          32.193   7.471  23.989  0.00  0.00     0.015 A 
ATOM     20  C2  UNL d          33.140   6.855  23.124  0.00  0.00     0.037 A 
ATOM     21  C1  UNL d          34.474   6.682  23.562  0.00  0.00     0.068 A 
ATOM     22  C4  UNL d          34.820   7.125  24.832  0.00  0.00     0.037 A 
ATOM     23  C5  UNL d          33.895   7.753  25.673  0.00  0.00     0.015 A 
BRANCH  21  24
ATOM     24  O   UNL d          35.470   6.078  22.799  0.00  0.00    -0.356 OA
ATOM     25  C   UNL d          35.030   5.521  21.559  0.00  0.00     0.210 C 
ENDBRANCH  21  24
ENDBRANCH   1  18
BRANCH   2  26
ATOM     26  C9  UNL d          31.844   7.008  28.228  0.00  0.00     0.272 C 
ATOM     27  O1  UNL d          32.384   6.048  27.701  0.00  0.00    -0.266 OA
ATOM     28  N   UNL d          31.673   7.141  29.548  0.00  0.00    -0.356 N 
ATOM     29  H7  UNL d          31.251   8.017  29.887  0.00  0.00     0.162 HD
BRANCH  28  30
ATOM     30  C10 UNL d          32.046   6.120  30.566  0.00  0.00     0.118 C 
ATOM     31  C11 UNL d          33.459   5.572  30.357  0.00  0.00     0.026 C 
ENDBRANCH  28  30
ENDBRANCH   2  26
TORSDOF 7
