@<TRIPOS>MOLECULE
MOL
   48    53     1     0     0
SMALL
No Charge or Current Charge


@<TRIPOS>ATOM
      1 C1          48.0270    17.2700    15.9580 ca         1 MOL       0.000000
      2 C2          47.3440    16.1350    16.4750 ca         1 MOL       0.000000
      3 C3          47.6380    14.8210    16.1490 ca         1 MOL       0.000000
      4 C4          48.6990    14.6750    15.2380 ca         1 MOL       0.000000
      5 C5          49.3140    13.4760    14.6490 cc         1 MOL       0.000000
      6 C6          50.2960    13.9490    13.8410 cd         1 MOL       0.000000
      7 N1          50.3410    15.2680    13.8750 na         1 MOL       0.000000
      8 C7          49.3880    15.7790    14.7140 ca         1 MOL       0.000000
      9 C8          49.0900    17.0900    15.0440 ca         1 MOL       0.000000
     10 C9          51.1470    13.0180    13.0710 c3         1 MOL       0.000000
     11 N2          50.6620    11.6510    12.9880 n          1 MOL       0.000000
     12 C10         51.4110    10.8220    12.2300 c          1 MOL       0.000000
     13 O1          52.4170    11.1570    11.6580 o          1 MOL       0.000000
     14 C11         50.9990     9.4260    12.0840 c3         1 MOL       0.000000
     15 N3          49.9780     8.9060    12.9940 n          1 MOL       0.000000
     16 C12         49.2250     9.7130    13.7300 c          1 MOL       0.000000
     17 O2          48.3390     9.3370    14.5140 o          1 MOL       0.000000
     18 C13         49.4320    11.1920    13.6430 c3         1 MOL       0.000000
     19 C14         48.9840    12.0240    14.8510 c3         1 MOL       0.000000
     20 C15         49.7610     7.4750    13.0990 c3         1 MOL       0.000000
     21 H1          51.0280    15.8640    13.3970 hn         1 MOL       0.000000
     22 C16         52.5600    13.1550    13.7370 ca         1 MOL       0.000000
     23 C17         53.5700    13.9690    13.1530 ca         1 MOL       0.000000
     24 C18         54.8270    14.1270    13.6960 ca         1 MOL       0.000000
     25 C19         55.0870    13.4450    14.8630 ca         1 MOL       0.000000
     26 O3          56.2500    13.4480    15.5770 os         1 MOL       0.000000
     27 C20         54.1510    12.6560    15.4550 ca         1 MOL       0.000000
     28 C21         56.0490    12.3670    16.4810 c3         1 MOL       0.000000
     29 O4          54.6250    12.0770    16.6060 os         1 MOL       0.000000
     30 C22         52.8750    12.4930    14.9130 ca         1 MOL       0.000000
     31 H2          47.7480    18.2200    16.2490 ha         1 MOL       0.000000
     32 H3          46.5740    16.3020    17.1410 ha         1 MOL       0.000000
     33 H4          47.1220    14.0180    16.5410 ha         1 MOL       0.000000
     34 H5          49.6120    17.8870    14.6470 ha         1 MOL       0.000000
     35 H6          51.1570    13.2790    12.0330 h1         1 MOL       0.000000
     36 H7          51.8730     8.8230    12.2110 h1         1 MOL       0.000000
     37 H8          50.5380     9.3860    11.1190 h1         1 MOL       0.000000
     38 H9          48.6880    11.4350    12.9140 h1         1 MOL       0.000000
     39 H10         49.4850    11.6690    15.7270 hc         1 MOL       0.000000
     40 H11         47.9250    11.9250    14.9630 hc         1 MOL       0.000000
     41 H12         50.4400     6.9630    12.4500 h1         1 MOL       0.000000
     42 H13         48.7550     7.2450    12.8160 h1         1 MOL       0.000000
     43 H14         49.9280     7.1620    14.1080 h1         1 MOL       0.000000
     44 H15         53.3500    14.4670    12.2770 ha         1 MOL       0.000000
     45 H16         55.5380    14.7270    13.2500 ha         1 MOL       0.000000
     46 H17         56.4420    12.6300    17.4410 h2         1 MOL       0.000000
     47 H18         56.5520    11.5000    16.1070 h2         1 MOL       0.000000
     48 H19         52.1790    11.8900    15.3800 ha         1 MOL       0.000000
@<TRIPOS>BOND
     1     1     2 ar  
     2     1    31 1   
     3     2    32 1   
     4     3     2 ar  
     5     3    33 1   
     6     4     3 ar  
     7     5    19 1   
     8     5     4 1   
     9     6     7 1   
    10     6     5 2   
    11     7     8 1   
    12     8     9 ar  
    13     8     4 ar  
    14     9     1 ar  
    15     9    34 1   
    16    10    22 1   
    17    10     6 1   
    18    10    35 1   
    19    11    10 1   
    20    11    18 1   
    21    12    11 1   
    22    13    12 2   
    23    14    12 1   
    24    14    15 1   
    25    14    36 1   
    26    14    37 1   
    27    15    20 1   
    28    15    16 1   
    29    16    17 2   
    30    18    16 1   
    31    18    19 1   
    32    18    38 1   
    33    19    39 1   
    34    19    40 1   
    35    20    41 1   
    36    20    42 1   
    37    20    43 1   
    38    21     7 1   
    39    22    30 ar  
    40    23    24 ar  
    41    23    22 ar  
    42    23    44 1   
    43    24    25 ar  
    44    24    45 1   
    45    25    27 ar  
    46    25    26 1   
    47    26    28 1   
    48    27    29 1   
    49    28    29 1   
    50    28    46 1   
    51    28    47 1   
    52    30    27 ar  
    53    30    48 1   
@<TRIPOS>SUBSTRUCTURE
     1 MOL         1 TEMP              0 ****  ****    0 ROOT
