@<TRIPOS>MOLECULE
MOL
   51    53     1     0     0
SMALL
No Charge or Current Charge


@<TRIPOS>ATOM
      1 C1          37.6480    33.5840    44.4330 cc         1 MOL       0.000000
      2 N1          36.3230    33.8980    44.0450 n          1 MOL       0.000000
      3 C2          36.0460    34.9670    43.1610 c          1 MOL       0.000000
      4 O1          34.9170    35.2530    42.7680 o          1 MOL       0.000000
      5 N2          37.1410    35.6820    42.7120 n          1 MOL       0.000000
      6 H1          36.9490    36.4660    42.0720 hn         1 MOL       0.000000
      7 C3          38.4760    35.4520    43.0350 c          1 MOL       0.000000
      8 O2          39.3510    36.1770    42.5630 o          1 MOL       0.000000
      9 C4          38.7350    34.3440    43.9320 cd         1 MOL       0.000000
     10 C5          35.1520    33.0800    44.4850 c3         1 MOL       0.000000
     11 O3          34.6340    33.5780    45.7060 os         1 MOL       0.000000
     12 C6          33.2630    33.9250    45.6010 c3         1 MOL       0.000000
     13 C7          32.6330    34.0220    46.9560 ca         1 MOL       0.000000
     14 C8          31.7360    35.0680    47.2460 ca         1 MOL       0.000000
     15 C9          31.0540    35.0980    48.4770 ca         1 MOL       0.000000
     16 C10         31.2760    34.0710    49.4220 ca         1 MOL       0.000000
     17 C11         32.1830    33.0250    49.1260 ca         1 MOL       0.000000
     18 C12         32.8600    33.0080    47.8900 ca         1 MOL       0.000000
     19 C13         37.8360    32.3730    45.3650 c3         1 MOL       0.000000
     20 C14         37.9330    30.9630    44.8040 ca         1 MOL       0.000000
     21 C15         39.1990    30.4470    44.4810 ca         1 MOL       0.000000
     22 C16         39.3250    29.0990    44.0540 ca         1 MOL       0.000000
     23 C17         38.1710    28.2740    43.9510 ca         1 MOL       0.000000
     24 C18         36.9020    28.7970    44.2710 ca         1 MOL       0.000000
     25 C19         36.7890    30.1430    44.6950 ca         1 MOL       0.000000
     26 C20         40.2350    34.0600    44.1510 c3         1 MOL       0.000000
     27 C21         40.8510    33.0380    43.1760 c3         1 MOL       0.000000
     28 C22         40.6370    33.9110    45.6030 c3         1 MOL       0.000000
     29 H2          35.4620    32.0650    44.6210 h2         1 MOL       0.000000
     30 H3          34.3890    33.1340    43.7360 h2         1 MOL       0.000000
     31 H4          32.7540    33.1760    45.0310 h1         1 MOL       0.000000
     32 H5          33.1870    34.8770    45.1190 h1         1 MOL       0.000000
     33 H6          31.5780    35.8160    46.5530 ha         1 MOL       0.000000
     34 H7          30.3960    35.8650    48.6880 ha         1 MOL       0.000000
     35 H8          30.7780    34.0830    50.3260 ha         1 MOL       0.000000
     36 H9          32.3480    32.2750    49.8150 ha         1 MOL       0.000000
     37 H10         33.5230    32.2470    47.6750 ha         1 MOL       0.000000
     38 H11         37.0050    32.3760    46.0400 hc         1 MOL       0.000000
     39 H12         38.8140    32.5350    45.7680 hc         1 MOL       0.000000
     40 H13         40.0360    31.0470    44.5540 ha         1 MOL       0.000000
     41 H14         40.2540    28.7180    43.8180 ha         1 MOL       0.000000
     42 H15         38.2630    27.2940    43.6420 ha         1 MOL       0.000000
     43 H16         36.0610    28.2030    44.1970 ha         1 MOL       0.000000
     44 H17         35.8600    30.5290    44.9270 ha         1 MOL       0.000000
     45 H18         40.7190    34.9690    43.8610 hc         1 MOL       0.000000
     46 H19         40.4400    32.0690    43.3680 hc         1 MOL       0.000000
     47 H20         41.9120    33.0090    43.3130 hc         1 MOL       0.000000
     48 H21         40.6290    33.3270    42.1700 hc         1 MOL       0.000000
     49 H22         40.2020    33.0190    46.0040 hc         1 MOL       0.000000
     50 H23         40.2900    34.7580    46.1580 hc         1 MOL       0.000000
     51 H24         41.7030    33.8510    45.6740 hc         1 MOL       0.000000
@<TRIPOS>BOND
     1     1    19 1   
     2     2     1 1   
     3     2    10 1   
     4     3     2 1   
     5     4     3 2   
     6     5     7 1   
     7     5     3 1   
     8     6     5 1   
     9     7     9 1   
    10     8     7 2   
    11     9    26 1   
    12     9     1 2   
    13    10    11 1   
    14    10    29 1   
    15    10    30 1   
    16    12    11 1   
    17    12    13 1   
    18    12    31 1   
    19    12    32 1   
    20    13    14 ar  
    21    13    18 ar  
    22    14    15 ar  
    23    14    33 1   
    24    15    16 ar  
    25    15    34 1   
    26    16    35 1   
    27    17    16 ar  
    28    17    36 1   
    29    18    17 ar  
    30    18    37 1   
    31    19    38 1   
    32    19    39 1   
    33    20    19 1   
    34    21    20 ar  
    35    21    40 1   
    36    22    21 ar  
    37    22    41 1   
    38    23    22 ar  
    39    23    24 ar  
    40    23    42 1   
    41    24    25 ar  
    42    24    43 1   
    43    25    20 ar  
    44    25    44 1   
    45    26    28 1   
    46    26    45 1   
    47    27    26 1   
    48    27    46 1   
    49    27    47 1   
    50    27    48 1   
    51    28    49 1   
    52    28    50 1   
    53    28    51 1   
@<TRIPOS>SUBSTRUCTURE
     1 MOL         1 TEMP              0 ****  ****    0 ROOT
