@<TRIPOS>MOLECULE
LIGAND
   38    39     1     0     0
SMALL
No Charge or Current Charge


@<TRIPOS>ATOM
      1 O           50.7850     2.2010   -10.0540 o          1 UNL      -0.226500
      2 C           49.7650     2.4050    -9.3980 c          1 UNL       0.401300
      3 O1          48.9710     1.2920    -8.9670 os         1 UNL      -0.437700
      4 N           49.5030     3.4380    -8.5800 n          1 UNL      -0.277000
      5 H           49.9910     4.3440    -8.6300 hn         1 UNL       0.152200
      6 C1          48.4580     3.1390    -7.6190 c3         1 UNL       0.058700
      7 C2          47.9970     1.7310    -8.0280 c3         1 UNL       0.152700
      8 C3          48.0490     0.7240    -6.8730 c3         1 UNL      -0.019000
      9 H1          47.3750     0.9920    -6.0440 hc         1 UNL       0.027200
     10 H2          47.7610    -0.2810    -7.2250 hc         1 UNL       0.027200
     11 H3          49.0710     0.6520    -6.4640 hc         1 UNL       0.027200
     12 C4          46.6100     1.7270    -8.6360 ca         1 UNL       0.000800
     13 C5          45.5100     2.1740    -7.8950 ca         1 UNL      -0.051100
     14 H4          45.6580     2.5380    -6.8780 ha         1 UNL       0.062300
     15 C6          44.2280     2.1600    -8.4410 ca         1 UNL      -0.015900
     16 H5          43.3850     2.5390    -7.8640 ha         1 UNL       0.065500
     17 C7          44.0260     1.6590    -9.7300 ca         1 UNL       0.161500
     18 O2          42.7850     1.6190   -10.3080 os         1 UNL      -0.491500
     19 C8          41.5840     2.1170    -9.7040 c3         1 UNL       0.079000
     20 H6          40.7880     1.9410   -10.4390 h1         1 UNL       0.066000
     21 H7          41.3450     1.5790    -8.7750 h1         1 UNL       0.066000
     22 H8          41.6530     3.1940    -9.4940 h1         1 UNL       0.066000
     23 C9          45.1160     1.2070   -10.4870 ca         1 UNL       0.162300
     24 C10         46.3930     1.2410    -9.9260 ca         1 UNL      -0.009300
     25 H9          47.2400     0.8800   -10.5090 ha         1 UNL       0.065900
     26 O3          44.8880     0.7470   -11.7810 os         1 UNL      -0.488300
     27 C11         45.9050     0.1950   -12.6180 c3         1 UNL       0.089500
     28 H10         46.2260    -0.7800   -12.2120 h1         1 UNL       0.069600
     29 H11         46.8000     0.8400   -12.6350 h1         1 UNL       0.069600
     30 C12         45.3630     0.0630   -14.0400 c3         1 UNL      -0.021500
     31 H12         44.4300    -0.5270   -14.0280 hc         1 UNL       0.029500
     32 H13         46.0800    -0.4790   -14.6810 hc         1 UNL       0.029500
     33 C13         45.1150     1.4450   -14.5960 c3         1 UNL      -0.062200
     34 H14         44.7530     1.4130   -15.6370 hc         1 UNL       0.023100
     35 H15         44.3570     1.9900   -14.0100 hc         1 UNL       0.023100
     36 H16         46.0400     2.0450   -14.5920 hc         1 UNL       0.023100
     37 H17         47.6840     3.9220    -7.6820 h1         1 UNL       0.050600
     38 H18         48.8920     3.1910    -6.6030 h1         1 UNL       0.050600
@<TRIPOS>BOND
     1     1     2 2   
     2     2     3 1   
     3     2     4 1   
     4     3     7 1   
     5     4     6 1   
     6     4     5 1   
     7     6     7 1   
     8     7     8 1   
     9     7    12 1   
    10     8     9 1   
    11     8    10 1   
    12     8    11 1   
    13    12    13 ar  
    14    12    24 ar  
    15    13    15 ar  
    16    13    14 1   
    17    15    17 ar  
    18    15    16 1   
    19    17    18 1   
    20    17    23 ar  
    21    18    19 1   
    22    19    20 1   
    23    19    21 1   
    24    19    22 1   
    25    23    24 ar  
    26    23    26 1   
    27    24    25 1   
    28    26    27 1   
    29    27    30 1   
    30    27    28 1   
    31    27    29 1   
    32    30    33 1   
    33    30    31 1   
    34    30    32 1   
    35    33    34 1   
    36    33    35 1   
    37    33    36 1   
    38     6    37 1   
    39     6    38 1   
@<TRIPOS>SUBSTRUCTURE
     1 UNL         1 TEMP              0 ****  ****    0 ROOT
