@<TRIPOS>MOLECULE
MOL
   25    22     1     0     0
SMALL
No Charge or Current Charge


@<TRIPOS>ATOM
      1 O1          11.6430    38.7490    28.0680 o          1 MOL       0.000000
      2 C1          12.6380    38.0570    28.2770 c          1 MOL       0.000000
      3 C2          12.9040    37.4970    29.6740 c1         1 MOL       0.000000
      4 H1          12.5060    36.4690    29.7660 ha         1 MOL       0.000000
      5 C3          12.3720    38.4340    30.7600 c3         1 MOL       0.000000
      6 C4          13.1600    37.9170    31.9660 c3         1 MOL       0.000000
      7 H2          12.7980    36.9030    32.2220 hc         1 MOL       0.000000
      8 H3          13.0830    38.5180    32.8850 hc         1 MOL       0.000000
      9 C5          14.5830    37.8560    31.4050 c3         1 MOL       0.000000
     10 H4          15.2560    37.1210    31.8680 h1         1 MOL       0.000000
     11 H5          15.0750    38.8440    31.4420 h1         1 MOL       0.000000
     12 N1          14.3400    37.4910    29.9900 n          1 MOL       0.000000
     13 C6          15.2620    37.2590    28.9590 c          1 MOL       0.000000
     14 O2          16.4680    37.2710    29.2030 o          1 MOL       0.000000
     15 C7          14.7840    37.0120    27.5260 c1         1 MOL       0.000000
     16 H6          14.5960    35.9320    27.3930 ha         1 MOL       0.000000
     17 H7          15.6030    37.3290    26.8660 ha         1 MOL       0.000000
     18 N2          13.5530    37.7890    27.2500 n          1 MOL       0.000000
     19 H8          13.3680    38.1350    26.2980 hn         1 MOL       0.000000
     20 H9          12.8010    37.6690    29.2190 h5         1 MOL       0.000000
     21 H10         12.5200    37.7760    29.9290 hc         1 MOL       0.000000
     22 H11         12.7150    39.4150    30.5040 hc         1 MOL       0.000000
     23 H12         11.3310    38.4720    31.0040 hc         1 MOL       0.000000
     24 H13         14.9300    37.0790    27.9990 h5         1 MOL       0.000000
     25 H14         14.3690    37.2720    27.4380 hn         1 MOL       0.000000
@<TRIPOS>BOND
     1     1     2 2   
     2     2    20 1   
     3     3     4 1   
     4     3    12 1   
     5     5     6 1   
     6     5    21 1   
     7     5    22 1   
     8     5    23 1   
     9     6     7 1   
    10     6     8 1   
    11     9    11 1   
    12     9    10 1   
    13     9     6 1   
    14    12     9 1   
    15    13    14 2   
    16    13    12 1   
    17    13    24 1   
    18    16    15 1   
    19    17    15 1   
    20    18     2 1   
    21    18    25 1   
    22    19    18 1   
@<TRIPOS>SUBSTRUCTURE
     1 MOL         1 TEMP              0 ****  ****    0 ROOT
