MODEL 1
REMARK VINA RESULT:      -7.8      0.000      0.000
REMARK  1 active torsions:
REMARK  status: ('A' for Active; 'I' for Inactive)
REMARK    1  A    between atoms: C8_10  and  C15_21 
ROOT
ATOM      1  C   UNL d          48.027  17.270  15.958  0.00  0.00     0.002 A 
ATOM      2  C1  UNL d          47.344  16.135  16.475  0.00  0.00     0.001 A 
ATOM      3  C2  UNL d          47.638  14.821  16.149  0.00  0.00     0.014 A 
ATOM      4  C3  UNL d          48.699  14.675  15.238  0.00  0.00    -0.001 A 
ATOM      5  C4  UNL d          49.314  13.476  14.649  0.00  0.00    -0.018 A 
ATOM      6  C5  UNL d          50.296  13.949  13.841  0.00  0.00     0.045 A 
ATOM      7  N   UNL d          50.341  15.268  13.875  0.00  0.00    -0.356 N 
ATOM      8  C6  UNL d          49.388  15.779  14.714  0.00  0.00     0.043 A 
ATOM      9  C7  UNL d          49.090  17.090  15.044  0.00  0.00     0.030 A 
ATOM     10  C8  UNL d          51.147  13.018  13.071  0.00  0.00     0.172 C 
ATOM     11  N1  UNL d          50.662  11.651  12.988  0.00  0.00    -0.323 N 
ATOM     12  C9  UNL d          51.411  10.822  12.230  0.00  0.00     0.239 C 
ATOM     13  O   UNL d          52.417  11.157  11.658  0.00  0.00    -0.271 OA
ATOM     14  C10 UNL d          50.999   9.426  12.084  0.00  0.00     0.228 C 
ATOM     15  N2  UNL d          49.978   8.906  12.994  0.00  0.00    -0.346 N 
ATOM     16  C11 UNL d          49.225   9.713  13.730  0.00  0.00     0.243 C 
ATOM     17  O1  UNL d          48.339   9.337  14.514  0.00  0.00    -0.271 OA
ATOM     18  C12 UNL d          49.432  11.192  13.643  0.00  0.00     0.185 C 
ATOM     19  C13 UNL d          48.984  12.024  14.851  0.00  0.00     0.076 C 
ATOM     20  C14 UNL d          49.761   7.475  13.099  0.00  0.00     0.153 C 
ATOM     21  H3  UNL d          51.028  15.864  13.397  0.00  0.00     0.166 HD
ENDROOT
BRANCH  10  22
ATOM     22  C15 UNL d          52.560  13.155  13.737  0.00  0.00    -0.027 A 
ATOM     23  C16 UNL d          53.570  13.969  13.153  0.00  0.00     0.012 A 
ATOM     24  C17 UNL d          54.827  14.127  13.696  0.00  0.00     0.040 A 
ATOM     25  C18 UNL d          55.087  13.445  14.863  0.00  0.00     0.105 A 
ATOM     26  O2  UNL d          56.250  13.448  15.577  0.00  0.00    -0.323 OA
ATOM     27  C20 UNL d          54.151  12.656  15.455  0.00  0.00     0.105 A 
ATOM     28  C19 UNL d          56.049  12.367  16.481  0.00  0.00     0.352 C 
ATOM     29  O3  UNL d          54.625  12.077  16.606  0.00  0.00    -0.323 OA
ATOM     30  C21 UNL d          52.875  12.493  14.913  0.00  0.00     0.049 A 
ENDBRANCH  10  22
TORSDOF 1
ENDMDL
MODEL 2
REMARK VINA RESULT:      -7.5      2.464      5.744
REMARK  1 active torsions:
REMARK  status: ('A' for Active; 'I' for Inactive)
REMARK    1  A    between atoms: C8_10  and  C15_21 
ROOT
ATOM      1  C   UNL d          47.464  15.725  15.962  0.00  0.00     0.002 A 
ATOM      2  C1  UNL d          48.281  16.777  15.468  0.00  0.00     0.001 A 
ATOM      3  C2  UNL d          49.457  16.597  14.758  0.00  0.00     0.014 A 
ATOM      4  C3  UNL d          49.804  15.251  14.547  0.00  0.00    -0.001 A 
ATOM      5  C4  UNL d          50.948  14.641  13.853  0.00  0.00    -0.018 A 
ATOM      6  C5  UNL d          50.753  13.303  13.968  0.00  0.00     0.045 A 
ATOM      7  N   UNL d          49.646  13.043  14.639  0.00  0.00    -0.356 N 
ATOM      8  C6  UNL d          49.014  14.195  15.024  0.00  0.00     0.043 A 
ATOM      9  C7  UNL d          47.839  14.382  15.732  0.00  0.00     0.030 A 
ATOM     10  C8  UNL d          51.717  12.352  13.378  0.00  0.00     0.172 C 
ATOM     11  N1  UNL d          52.993  12.921  12.979  0.00  0.00    -0.323 N 
ATOM     12  C9  UNL d          53.892  12.034  12.500  0.00  0.00     0.239 C 
ATOM     13  O   UNL d          53.680  10.853  12.391  0.00  0.00    -0.271 OA
ATOM     14  C10 UNL d          55.207  12.514  12.077  0.00  0.00     0.228 C 
ATOM     15  N2  UNL d          55.396  13.954  11.901  0.00  0.00    -0.346 N 
ATOM     16  C11 UNL d          54.528  14.834  12.383  0.00  0.00     0.243 C 
ATOM     17  O1  UNL d          54.633  16.067  12.275  0.00  0.00    -0.271 OA
ATOM     18  C12 UNL d          53.316  14.346  13.111  0.00  0.00     0.185 C 
ATOM     19  C13 UNL d          52.106  15.289  13.149  0.00  0.00     0.076 C 
ATOM     20  C14 UNL d          56.562  14.453  11.195  0.00  0.00     0.153 C 
ATOM     21  H3  UNL d          49.247  12.113  14.815  0.00  0.00     0.166 HD
ENDROOT
BRANCH  10  22
ATOM     22  C15 UNL d          50.921  11.683  12.203  0.00  0.00    -0.027 A 
ATOM     23  C16 UNL d          50.144  10.511  12.418  0.00  0.00     0.012 A 
ATOM     24  C17 UNL d          49.424   9.884  11.425  0.00  0.00     0.040 A 
ATOM     25  C18 UNL d          49.484  10.445  10.169  0.00  0.00     0.105 A 
ATOM     26  O2  UNL d          48.860  10.003   9.040  0.00  0.00    -0.323 OA
ATOM     27  C20 UNL d          50.214  11.564   9.919  0.00  0.00     0.105 A 
ATOM     28  C19 UNL d          49.506  10.762   8.024  0.00  0.00     0.352 C 
ATOM     29  O3  UNL d          50.128  11.947   8.604  0.00  0.00    -0.323 OA
ATOM     30  C21 UNL d          50.944  12.207  10.921  0.00  0.00     0.049 A 
ENDBRANCH  10  22
TORSDOF 1
ENDMDL
MODEL 3
REMARK VINA RESULT:      -7.5      2.956      6.644
REMARK  1 active torsions:
REMARK  status: ('A' for Active; 'I' for Inactive)
REMARK    1  A    between atoms: C8_10  and  C15_21 
ROOT
ATOM      1  C   UNL d          52.337   8.459  17.848  0.00  0.00     0.002 A 
ATOM      2  C1  UNL d          53.590   9.119  17.968  0.00  0.00     0.001 A 
ATOM      3  C2  UNL d          53.972  10.226  17.228  0.00  0.00     0.014 A 
ATOM      4  C3  UNL d          53.002  10.674  16.314  0.00  0.00    -0.001 A 
ATOM      5  C4  UNL d          53.010  11.794  15.361  0.00  0.00    -0.018 A 
ATOM      6  C5  UNL d          51.800  11.739  14.748  0.00  0.00     0.045 A 
ATOM      7  N   UNL d          51.081  10.734  15.212  0.00  0.00    -0.356 N 
ATOM      8  C6  UNL d          51.759  10.039  16.177  0.00  0.00     0.043 A 
ATOM      9  C7  UNL d          51.382   8.933  16.920  0.00  0.00     0.030 A 
ATOM     10  C8  UNL d          51.440  12.728  13.711  0.00  0.00     0.172 C 
ATOM     11  N1  UNL d          52.543  13.515  13.187  0.00  0.00    -0.323 N 
ATOM     12  C9  UNL d          52.216  14.371  12.195  0.00  0.00     0.239 C 
ATOM     13  O   UNL d          51.101  14.503  11.760  0.00  0.00    -0.271 OA
ATOM     14  C10 UNL d          53.263  15.204  11.602  0.00  0.00     0.228 C 
ATOM     15  N2  UNL d          54.546  15.303  12.296  0.00  0.00    -0.346 N 
ATOM     16  C11 UNL d          54.884  14.456  13.260  0.00  0.00     0.243 C 
ATOM     17  O1  UNL d          55.958  14.481  13.882  0.00  0.00    -0.271 OA
ATOM     18  C12 UNL d          53.924  13.381  13.661  0.00  0.00     0.185 C 
ATOM     19  C13 UNL d          54.078  12.813  15.078  0.00  0.00     0.076 C 
ATOM     20  C14 UNL d          55.493  16.340  11.927  0.00  0.00     0.153 C 
ATOM     21  H3  UNL d          50.112  10.510  14.953  0.00  0.00     0.166 HD
ENDROOT
BRANCH  10  22
ATOM     22  C15 UNL d          50.306  13.583  14.378  0.00  0.00    -0.027 A 
ATOM     23  C16 UNL d          48.991  13.062  14.534  0.00  0.00     0.012 A 
ATOM     24  C17 UNL d          47.960  13.767  15.115  0.00  0.00     0.040 A 
ATOM     25  C18 UNL d          48.249  15.039  15.553  0.00  0.00     0.105 A 
ATOM     26  O2  UNL d          47.394  15.917  16.153  0.00  0.00    -0.323 OA
ATOM     27  C20 UNL d          49.491  15.576  15.424  0.00  0.00     0.105 A 
ATOM     28  C19 UNL d          48.132  17.133  16.106  0.00  0.00     0.352 C 
ATOM     29  O3  UNL d          49.552  16.851  15.930  0.00  0.00    -0.323 OA
ATOM     30  C21 UNL d          50.543  14.868  14.839  0.00  0.00     0.049 A 
ENDBRANCH  10  22
TORSDOF 1
ENDMDL
