@<TRIPOS>MOLECULE
MOL
   25    25     1     0     0
SMALL
No Charge or Current Charge


@<TRIPOS>ATOM
      1 C1          24.4510    37.3280    36.0360 c3         1 MOL       0.000000
      2 N1          23.5170    38.2300    36.3990 nh         1 MOL       0.000000
      3 C2          23.0300    38.3640    37.6900 cc         1 MOL       0.000000
      4 N2          22.1570    39.2310    37.9530 nc         1 MOL       0.000000
      5 C3          21.6190    39.4270    39.2180 cd         1 MOL       0.000000
      6 N3          20.7700    40.2790    39.4470 nh         1 MOL       0.000000
      7 H1          20.3980    40.3910    40.4010 hn         1 MOL       0.000000
      8 H2          20.4280    40.8830    38.6860 hn         1 MOL       0.000000
      9 C4          23.5120    37.5330    38.6960 cd         1 MOL       0.000000
     10 C5          23.0310    37.6510    40.0200 c          1 MOL       0.000000
     11 N4          22.1340    38.5820    40.1600 n          1 MOL       0.000000
     12 H3          21.7580    38.6980    41.1120 hn         1 MOL       0.000000
     13 O1          23.4470    36.9240    40.9230 o          1 MOL       0.000000
     14 N5          24.5220    36.5400    38.3670 nh         1 MOL       0.000000
     15 C6          25.0180    36.3590    37.1920 c1         1 MOL       0.000000
     16 H4          23.1430    38.8570    35.6730 hn         1 MOL       0.000000
     17 C7          26.0200    35.4040    36.7700 c3         1 MOL       0.000000
     18 O2          25.9210    35.1420    35.3790 oh         1 MOL       0.000000
     19 H5          26.2390    35.9670    34.8510 ho         1 MOL       0.000000
     20 H6          24.6540    37.4260    34.9900 h1         1 MOL       0.000000
     21 H7          24.0910    36.3410    36.2380 h1         1 MOL       0.000000
     22 H8          25.3490    37.5010    36.5920 h1         1 MOL       0.000000
     23 H9          24.8510    35.9640    39.0950 hn         1 MOL       0.000000
     24 H10         26.9910    35.7990    36.9830 h1         1 MOL       0.000000
     25 H11         25.8620    34.4880    37.3010 h1         1 MOL       0.000000
@<TRIPOS>BOND
     1     1     2 1   
     2     1    20 1   
     3     1    21 1   
     4     1    22 1   
     5     2     3 1   
     6     3     4 1   
     7     3     9 2   
     8     4     5 2   
     9     5     6 1   
    10     5    11 1   
    11     6     7 1   
    12     8     6 1   
    13     9    10 1   
    14    10    11 1   
    15    10    13 2   
    16    11    12 1   
    17    14     9 1   
    18    14    23 1   
    19    15    14 3   
    20    16     2 1   
    21    17    15 1   
    22    17    24 1   
    23    17    25 1   
    24    18    17 1   
    25    19    18 1   
@<TRIPOS>SUBSTRUCTURE
     1 MOL         1 TEMP              0 ****  ****    0 ROOT
