@<TRIPOS>MOLECULE
MOL
   40    41     1     0     0
SMALL
No Charge or Current Charge


@<TRIPOS>ATOM
      1 C1          31.4790     9.6960    25.3270 ce         1 MOL       0.000000
      2 C2          32.0340     8.5130    25.1320 cf         1 MOL       0.000000
      3 C3          31.1670    10.1450    26.7350 c3         1 MOL       0.000000
      4 C4          29.7440     9.7840    27.1000 c3         1 MOL       0.000000
      5 C5          31.1460    10.6140    24.1920 ca         1 MOL       0.000000
      6 C6          29.8390    10.6570    23.7330 ca         1 MOL       0.000000
      7 C7          29.5080    11.4720    22.6650 ca         1 MOL       0.000000
      8 C8          30.4750    12.2450    22.0590 ca         1 MOL       0.000000
      9 C9          31.7950    12.2010    22.5020 ca         1 MOL       0.000000
     10 C10         32.1360    11.3770    23.5750 ca         1 MOL       0.000000
     11 O1          30.1140    13.0360    21.0010 oh         1 MOL       0.000000
     12 H1          30.1690    14.0260    21.2760 ho         1 MOL       0.000000
     13 C11         32.3480     7.6720    26.3350 ca         1 MOL       0.000000
     14 C12         33.5640     7.7580    27.0120 ca         1 MOL       0.000000
     15 C13         33.7850     6.9480    28.1350 ca         1 MOL       0.000000
     16 C14         32.7990     6.0580    28.5700 ca         1 MOL       0.000000
     17 C15         31.5970     5.9810    27.8860 ca         1 MOL       0.000000
     18 C16         31.3750     6.7840    26.7740 ca         1 MOL       0.000000
     19 O2          32.9910     5.2440    29.6700 oh         1 MOL       0.000000
     20 H2          32.6330     5.7150    30.5130 ho         1 MOL       0.000000
     21 C17         32.3800     8.0630    23.7280 c3         1 MOL       0.000000
     22 C18         33.8910     8.1380    23.5930 c3         1 MOL       0.000000
     23 H3          31.2900    11.2060    26.8020 hc         1 MOL       0.000000
     24 H4          31.8340     9.6540    27.4120 hc         1 MOL       0.000000
     25 H5          29.0690    10.2710    26.4280 hc         1 MOL       0.000000
     26 H6          29.5410    10.1020    28.1010 hc         1 MOL       0.000000
     27 H7          29.6160     8.7240    27.0290 hc         1 MOL       0.000000
     28 H8          29.1130    10.0810    24.1880 ha         1 MOL       0.000000
     29 H9          28.5350    11.5010    22.3220 ha         1 MOL       0.000000
     30 H10         32.5170    12.7750    22.0390 ha         1 MOL       0.000000
     31 H11         33.1120    11.3330    23.9090 ha         1 MOL       0.000000
     32 H12         34.2940     8.4120    26.6890 ha         1 MOL       0.000000
     33 H13         34.6810     7.0090    28.6430 ha         1 MOL       0.000000
     34 H14         30.8650     5.3260    28.2030 ha         1 MOL       0.000000
     35 H15         30.4770     6.7200    26.2690 ha         1 MOL       0.000000
     36 H16         32.0470     7.0580    23.5730 hc         1 MOL       0.000000
     37 H17         31.9020     8.6850    23.0010 hc         1 MOL       0.000000
     38 H18         34.3460     7.5090    24.3290 hc         1 MOL       0.000000
     39 H19         34.2120     9.1480    23.7390 hc         1 MOL       0.000000
     40 H20         34.1780     7.8100    22.6160 hc         1 MOL       0.000000
@<TRIPOS>BOND
     1     1     3 1   
     2     2     1 2   
     3     2    13 1   
     4     3     4 1   
     5     3    23 1   
     6     3    24 1   
     7     4    25 1   
     8     4    26 1   
     9     4    27 1   
    10     5     1 1   
    11     6     5 ar  
    12     6    28 1   
    13     7     6 ar  
    14     7    29 1   
    15     8     9 ar  
    16     8     7 ar  
    17     9    10 ar  
    18     9    30 1   
    19    10     5 ar  
    20    10    31 1   
    21    11    12 1   
    22    11     8 1   
    23    13    18 ar  
    24    13    14 ar  
    25    14    15 ar  
    26    14    32 1   
    27    15    16 ar  
    28    15    33 1   
    29    16    19 1   
    30    17    16 ar  
    31    17    34 1   
    32    18    17 ar  
    33    18    35 1   
    34    19    20 1   
    35    21     2 1   
    36    21    36 1   
    37    21    37 1   
    38    22    21 1   
    39    22    38 1   
    40    22    39 1   
    41    22    40 1   
@<TRIPOS>SUBSTRUCTURE
     1 MOL         1 TEMP              0 ****  ****    0 ROOT
