@<TRIPOS>MOLECULE
MOL
   32    33     1     0     0
SMALL
No Charge or Current Charge


@<TRIPOS>ATOM
      1 N1          23.8010    -9.5840    52.8450 n2         1 MOL       0.000000
      2 C1          22.4960   -10.0060    53.1030 c3         1 MOL       0.000000
      3 C2          24.4870    -8.8780    53.8090 ce         1 MOL       0.000000
      4 C3          23.8860    -8.6410    55.1560 ce         1 MOL       0.000000
      5 C4          22.4760    -9.1240    55.3020 c2         1 MOL       0.000000
      6 N2          21.8330    -9.8170    54.3200 nh         1 MOL       0.000000
      7 N3          25.7510    -8.4520    53.5920 nh         1 MOL       0.000000
      8 H1          20.8850   -10.1920    54.4710 hn         1 MOL       0.000000
      9 H2          26.2500    -7.9250    54.3230 hn         1 MOL       0.000000
     10 H3          26.2160    -8.6550    52.6960 hn         1 MOL       0.000000
     11 C5          24.5550    -7.9310    56.2220 ca         1 MOL       0.000000
     12 C6          24.4830    -6.5380    56.3900 ca         1 MOL       0.000000
     13 C7          25.1610    -5.8770    57.4410 ca         1 MOL       0.000000
     14 C8          25.9690    -6.6300    58.3760 ca         1 MOL       0.000000
     15 C9          26.0680    -8.0130    58.2610 ca         1 MOL       0.000000
     16 Cl1         26.7280    -5.7300    59.5490 cl         1 MOL       0.000000
     17 C10         25.3670    -8.6610    57.1980 ca         1 MOL       0.000000
     18 C11         21.7880    -8.9030    56.6220 c3         1 MOL       0.000000
     19 C12         21.7860   -10.0050    57.6580 c3         1 MOL       0.000000
     20 N4          21.8170   -10.7190    52.1040 n3         1 MOL       0.000000
     21 H4          21.6450   -10.2840    51.1860 hn         1 MOL       0.000000
     22 H5          21.4910   -11.6790    52.2880 hn         1 MOL       0.000000
     23 H6          22.8070    -9.0490    53.4680 h3         1 MOL       0.000000
     24 H7          23.9200    -5.9810    55.7280 ha         1 MOL       0.000000
     25 H8          25.0790    -4.8530    57.5410 ha         1 MOL       0.000000
     26 H9          26.6350    -8.5590    58.9290 ha         1 MOL       0.000000
     27 H10         25.4360    -9.6870    57.1140 ha         1 MOL       0.000000
     28 H11         20.7650    -8.6790    56.4050 hc         1 MOL       0.000000
     29 H12         22.3690    -8.1300    57.0800 hc         1 MOL       0.000000
     30 H13         21.2220   -10.8380    57.2920 hc         1 MOL       0.000000
     31 H14         21.3420    -9.6440    58.5620 hc         1 MOL       0.000000
     32 H15         22.7920   -10.3130    57.8530 hc         1 MOL       0.000000
@<TRIPOS>BOND
     1     1     2 1   
     2     1     3 2   
     3     2     6 1   
     4     2    23 1   
     5     3     4 1   
     6     4     5 2   
     7     4    11 1   
     8     5    18 1   
     9     6     8 1   
    10     6     5 1   
    11     7     3 1   
    12     7     9 1   
    13    10     7 1   
    14    11    12 ar  
    15    11    17 ar  
    16    12    13 ar  
    17    12    24 1   
    18    13    14 ar  
    19    13    25 1   
    20    14    16 1   
    21    15    14 ar  
    22    15    26 1   
    23    17    15 ar  
    24    17    27 1   
    25    18    19 1   
    26    18    28 1   
    27    18    29 1   
    28    19    30 1   
    29    19    31 1   
    30    19    32 1   
    31    20    22 1   
    32    20     2 1   
    33    21    20 1   
@<TRIPOS>SUBSTRUCTURE
     1 MOL         1 TEMP              0 ****  ****    0 ROOT
