@<TRIPOS>MOLECULE
MOL
   25    25     1     0     0
SMALL
No Charge or Current Charge


@<TRIPOS>ATOM
      1 C1          -6.6790     5.7110    15.8230 c3         1 MOL       0.000000
      2 C2          -7.3590     4.3420    15.7920 c3         1 MOL       0.000000
      3 N1          -7.2800     3.7750    17.1380 n4         1 MOL       0.000000
      4 H1          -6.3900     3.6150    17.5650 hn         1 MOL       0.000000
      5 H2          -7.8550     4.3280    17.7600 hn         1 MOL       0.000000
      6 H3          -7.8370     2.9230    17.0910 hn         1 MOL       0.000000
      7 C3          -6.6840     3.4530    14.7720 c          1 MOL       0.000000
      8 O1          -5.6290     2.7970    15.0080 oh         1 MOL       0.000000
      9 O2          -7.2620     3.3860    13.6890 o          1 MOL       0.000000
     10 C4          -7.4490     6.8140    16.5230 ca         1 MOL       0.000000
     11 C5          -8.3530     7.5470    15.8160 ca         1 MOL       0.000000
     12 C6          -9.0280     8.5540    16.4500 ca         1 MOL       0.000000
     13 C7          -8.8550     8.8170    17.7830 ca         1 MOL       0.000000
     14 C8          -7.9240     8.0970    18.5210 ca         1 MOL       0.000000
     15 C9          -7.2190     7.1080    17.8620 ca         1 MOL       0.000000
     16 O3          -9.5070     9.7810    18.2990 oh         1 MOL       0.000000
     17 H4         -10.2310    10.1000    17.6380 ho         1 MOL       0.000000
     18 H5          -6.5120     6.0180    14.8120 hc         1 MOL       0.000000
     19 H6          -5.7820     5.5770    16.3900 hc         1 MOL       0.000000
     20 H7          -8.3860     4.4290    15.5030 hx         1 MOL       0.000000
     21 H8          -5.2100     2.8680    15.8430 ho         1 MOL       0.000000
     22 H9          -8.5260     7.3460    14.8190 ha         1 MOL       0.000000
     23 H10         -9.6880     9.1330    15.9070 ha         1 MOL       0.000000
     24 H11         -7.7650     8.2930    19.5220 ha         1 MOL       0.000000
     25 H12         -6.5030     6.5730    18.3780 ha         1 MOL       0.000000
@<TRIPOS>BOND
     1     1    10 1   
     2     1    18 1   
     3     1    19 1   
     4     2     1 1   
     5     2     3 1   
     6     2    20 1   
     7     3     4 1   
     8     3     5 1   
     9     6     3 1   
    10     7     8 1   
    11     7     2 1   
    12     8    21 1   
    13     9     7 2   
    14    10    15 ar  
    15    11    12 ar  
    16    11    10 ar  
    17    11    22 1   
    18    12    13 ar  
    19    12    23 1   
    20    13    16 1   
    21    13    14 ar  
    22    14    24 1   
    23    15    14 ar  
    24    15    25 1   
    25    17    16 1   
@<TRIPOS>SUBSTRUCTURE
     1 MOL         1 TEMP              0 ****  ****    0 ROOT
