MODEL 1
REMARK VINA RESULT:      -8.3      0.000      0.000
REMARK  11 active torsions:
REMARK  status: ('A' for Active; 'I' for Inactive)
REMARK    1  A    between atoms: C_2  and  N1_3 
REMARK    2  A    between atoms: C_6  and  N5_23 
REMARK    3  A    between atoms: C2_7  and  N4_11 
REMARK    4  A    between atoms: N4_11  and  C5_13 
REMARK    5  A    between atoms: C8_16  and  C11_20 
REMARK    6  A    between atoms: N5_23  and  CA_25 
REMARK    7  A    between atoms: CA_25  and  CB_27 
REMARK    8  A    between atoms: CA_25  and  C12_36 
REMARK    9  A    between atoms: CB_27  and  CG1_28 
REMARK   10  A    between atoms: CB_27  and  CG2_32 
REMARK   11  A    between atoms: C12_36  and  O2_37 
ROOT
ATOM      1  N   UNL d          23.493  15.955  31.135  0.00  0.00    -0.041 NA
ATOM      2  N1  UNL d          25.819  12.594  31.433  0.00  0.00    -0.320 N 
ATOM      3  C1  UNL d          25.150  13.758  31.199  0.00  0.00     0.183 A 
ATOM      4  N2  UNL d          25.484  14.882  30.338  0.00  0.00    -0.041 NA
ATOM      5  C   ACE d          24.614  15.935  30.306  0.00  0.00     0.745 A 
ATOM      6  C2  UNL d          23.139  14.940  31.984  0.00  0.00     0.180 A 
ATOM      7  C3  UNL d          23.942  13.781  32.041  0.00  0.00     0.151 A 
ATOM      8  N3  UNL d          23.957  12.613  32.739  0.00  0.00    -0.236 NA
ATOM      9  C4  UNL d          25.065  11.925  32.357  0.00  0.00     0.212 A 
ENDROOT
BRANCH   5  10
ATOM     10  N5  UNL d          24.869  17.023  29.514  0.00  0.00    -0.114 N 
ATOM     11  H8  UNL d          24.327  17.211  28.659  0.00  0.00     0.206 HD
BRANCH  10  12
ATOM     12 CA   UNL d          25.954  17.901  29.950  0.00  0.00     0.000 Ca
ATOM     13  HA  UNL d          26.399  17.415  30.837  0.00  0.00     0.000 HD
BRANCH  12  14
ATOM     14  CB  UNL d          25.506  19.196  30.658  0.00  0.00    -0.019 C 
BRANCH  14  15
ATOM     15  CG1 UNL d          25.173  19.000  32.159  0.00  0.00    -0.073 C 
ATOM     16 HG11 UNL d          24.358  18.268  32.283  0.00  0.00     0.028 Hg
ATOM     17 HG12 UNL d          26.037  18.633  32.733  0.00  0.00     0.028 Hg
ATOM     18 HG13 UNL d          24.834  19.947  32.611  0.00  0.00     0.028 Hg
ENDBRANCH  14  15
BRANCH  14  19
ATOM     19  CG2 UNL d          24.530  20.065  29.876  0.00  0.00    -0.073 C 
ATOM     20 HG21 UNL d          23.496  19.705  30.019  0.00  0.00     0.028 Hg
ATOM     21 HG22 UNL d          24.537  21.109  30.231  0.00  0.00     0.028 Hg
ATOM     22 HG23 UNL d          24.726  20.062  28.792  0.00  0.00     0.028 Hg
ENDBRANCH  14  19
ENDBRANCH  12  14
BRANCH  12  23
ATOM     23  C12 UNL d          27.149  18.017  28.985  0.00  0.00     0.190 C 
BRANCH  23  24
ATOM     24  O2  UNL d          26.702  18.688  27.837  0.00  0.00    -0.399 OA
ATOM     25  H9  UNL d          27.474  18.757  27.157  0.00  0.00     0.209 HD
ENDBRANCH  23  24
ENDBRANCH  12  23
ENDBRANCH  10  12
ENDBRANCH   5  10
BRANCH   6  26
ATOM     26  N4  UNL d          22.016  14.992  32.779  0.00  0.00    -0.338 N 
ATOM     27  H4  UNL d          21.743  14.136  33.282  0.00  0.00     0.167 HD
BRANCH  26  28
ATOM     28  C5  UNL d          21.238  16.101  32.946  0.00  0.00     0.035 A 
ATOM     29  C6  UNL d          21.605  17.066  33.906  0.00  0.00     0.030 A 
ATOM     30  C7  UNL d          20.804  18.178  34.127  0.00  0.00     0.022 A 
ATOM     31  C8  UNL d          19.612  18.331  33.394  0.00  0.00     0.062 A 
ATOM     32  C9  UNL d          19.215  17.288  32.406  0.00  0.00     0.053 A 
ATOM     33 Cl   UNL d          17.926  17.385  31.603  0.00  0.00    -0.083 Cl
ATOM     34  C10 UNL d          20.070  16.213  32.222  0.00  0.00     0.054 A 
BRANCH  31  35
ATOM     35  C11 UNL d          18.736  19.516  33.625  0.00  0.00     0.211 C 
ATOM     36  O   UNL d          17.524  19.354  33.842  0.00  0.00    -0.644 OA
ATOM     37  O1  UNL d          19.214  20.660  33.593  0.00  0.00    -0.644 OA
ENDBRANCH  31  35
ENDBRANCH  26  28
ENDBRANCH   6  26
BRANCH   2  38
ATOM     38  C   UNL d          27.033  12.022  30.797  0.00  0.00     0.084 C 
ATOM     39  C13 UNL d          27.267  10.689  31.483  0.00  0.00     0.032 C 
ATOM     40  C14 UNL d          26.948  11.772  29.296  0.00  0.00     0.032 C 
ENDBRANCH   2  38
TORSDOF 11
ENDMDL
MODEL 2
REMARK VINA RESULT:      -8.3      3.558      6.276
REMARK  11 active torsions:
REMARK  status: ('A' for Active; 'I' for Inactive)
REMARK    1  A    between atoms: C_2  and  N1_3 
REMARK    2  A    between atoms: C_6  and  N5_23 
REMARK    3  A    between atoms: C2_7  and  N4_11 
REMARK    4  A    between atoms: N4_11  and  C5_13 
REMARK    5  A    between atoms: C8_16  and  C11_20 
REMARK    6  A    between atoms: N5_23  and  CA_25 
REMARK    7  A    between atoms: CA_25  and  CB_27 
REMARK    8  A    between atoms: CA_25  and  C12_36 
REMARK    9  A    between atoms: CB_27  and  CG1_28 
REMARK   10  A    between atoms: CB_27  and  CG2_32 
REMARK   11  A    between atoms: C12_36  and  O2_37 
ROOT
ATOM      1  N   UNL d          21.929  16.547  32.087  0.00  0.00    -0.041 NA
ATOM      2  N1  UNL d          23.977  13.069  32.798  0.00  0.00    -0.320 N 
ATOM      3  C1  UNL d          23.198  14.182  32.703  0.00  0.00     0.183 A 
ATOM      4  N2  UNL d          21.973  14.541  33.400  0.00  0.00    -0.041 NA
ATOM      5  C   ACE d          21.397  15.741  33.093  0.00  0.00     0.745 A 
ATOM      6  C2  UNL d          23.065  16.253  31.379  0.00  0.00     0.180 A 
ATOM      7  C3  UNL d          23.766  15.064  31.668  0.00  0.00     0.151 A 
ATOM      8  N3  UNL d          24.868  14.417  31.199  0.00  0.00    -0.236 NA
ATOM      9  C4  UNL d          24.978  13.250  31.885  0.00  0.00     0.212 A 
ENDROOT
BRANCH   5  10
ATOM     10  N5  UNL d          20.244  16.138  33.716  0.00  0.00    -0.114 N 
ATOM     11  H8  UNL d          19.453  15.494  33.856  0.00  0.00     0.206 HD
BRANCH  10  12
ATOM     12 CA   UNL d          20.199  17.527  34.171  0.00  0.00     0.000 Ca
ATOM     13  HA  UNL d          19.534  17.535  35.053  0.00  0.00     0.000 HD
BRANCH  12  14
ATOM     14  CB  UNL d          19.352  18.477  33.298  0.00  0.00    -0.019 C 
BRANCH  14  15
ATOM     15  CG1 UNL d          18.868  19.743  34.048  0.00  0.00    -0.073 C 
ATOM     16 HG11 UNL d          18.529  19.486  35.066  0.00  0.00     0.028 Hg
ATOM     17 HG12 UNL d          19.662  20.499  34.146  0.00  0.00     0.028 Hg
ATOM     18 HG13 UNL d          18.013  20.204  33.525  0.00  0.00     0.028 Hg
ENDBRANCH  14  15
BRANCH  14  19
ATOM     19  CG2 UNL d          18.314  17.799  32.413  0.00  0.00    -0.073 C 
ATOM     20 HG21 UNL d          17.793  18.548  31.791  0.00  0.00     0.028 Hg
ATOM     21 HG22 UNL d          18.778  17.091  31.707  0.00  0.00     0.028 Hg
ATOM     22 HG23 UNL d          17.541  17.265  32.989  0.00  0.00     0.028 Hg
ENDBRANCH  14  19
ENDBRANCH  12  14
BRANCH  12  23
ATOM     23  C12 UNL d          21.519  18.092  34.728  0.00  0.00     0.190 C 
BRANCH  23  24
ATOM     24  O2  UNL d          21.949  19.103  33.856  0.00  0.00    -0.399 OA
ATOM     25  H9  UNL d          21.315  19.150  33.045  0.00  0.00     0.209 HD
ENDBRANCH  23  24
ENDBRANCH  12  23
ENDBRANCH  10  12
ENDBRANCH   5  10
BRANCH   6  26
ATOM     26  N4  UNL d          23.567  17.082  30.400  0.00  0.00    -0.338 N 
ATOM     27  H4  UNL d          23.195  16.978  29.446  0.00  0.00     0.167 HD
BRANCH  26  28
ATOM     28  C5  UNL d          24.524  18.033  30.609  0.00  0.00     0.035 A 
ATOM     29  C6  UNL d          25.060  18.731  29.508  0.00  0.00     0.030 A 
ATOM     30  C7  UNL d          26.067  19.667  29.691  0.00  0.00     0.022 A 
ATOM     31  C8  UNL d          26.564  19.907  30.987  0.00  0.00     0.062 A 
ATOM     32  C9  UNL d          26.015  19.140  32.140  0.00  0.00     0.053 A 
ATOM     33 Cl   UNL d          26.530  19.337  33.559  0.00  0.00    -0.083 Cl
ATOM     34  C10 UNL d          24.998  18.234  31.889  0.00  0.00     0.054 A 
BRANCH  31  35
ATOM     35  C11 UNL d          27.653  20.905  31.200  0.00  0.00     0.211 C 
ATOM     36  O   UNL d          27.402  21.979  31.771  0.00  0.00    -0.644 OA
ATOM     37  O1  UNL d          28.803  20.667  30.802  0.00  0.00    -0.644 OA
ENDBRANCH  31  35
ENDBRANCH  26  28
ENDBRANCH   6  26
BRANCH   2  38
ATOM     38  C   UNL d          23.916  11.914  33.729  0.00  0.00     0.084 C 
ATOM     39  C13 UNL d          22.808  11.019  33.205  0.00  0.00     0.032 C 
ATOM     40  C14 UNL d          25.184  11.077  33.842  0.00  0.00     0.032 C 
ENDBRANCH   2  38
TORSDOF 11
ENDMDL
MODEL 3
REMARK VINA RESULT:      -8.2      4.731      7.381
REMARK  11 active torsions:
REMARK  status: ('A' for Active; 'I' for Inactive)
REMARK    1  A    between atoms: C_2  and  N1_3 
REMARK    2  A    between atoms: C_6  and  N5_23 
REMARK    3  A    between atoms: C2_7  and  N4_11 
REMARK    4  A    between atoms: N4_11  and  C5_13 
REMARK    5  A    between atoms: C8_16  and  C11_20 
REMARK    6  A    between atoms: N5_23  and  CA_25 
REMARK    7  A    between atoms: CA_25  and  CB_27 
REMARK    8  A    between atoms: CA_25  and  C12_36 
REMARK    9  A    between atoms: CB_27  and  CG1_28 
REMARK   10  A    between atoms: CB_27  and  CG2_32 
REMARK   11  A    between atoms: C12_36  and  O2_37 
ROOT
ATOM      1  N   UNL d          22.830  14.724  33.285  0.00  0.00    -0.041 NA
ATOM      2  N1  UNL d          25.300  16.763  30.728  0.00  0.00    -0.320 N 
ATOM      3  C1  UNL d          24.429  16.244  31.638  0.00  0.00     0.183 A 
ATOM      4  N2  UNL d          23.699  16.887  32.720  0.00  0.00    -0.041 NA
ATOM      5  C   ACE d          22.886  16.102  33.489  0.00  0.00     0.745 A 
ATOM      6  C2  UNL d          23.510  14.059  32.299  0.00  0.00     0.180 A 
ATOM      7  C3  UNL d          24.328  14.792  31.414  0.00  0.00     0.151 A 
ATOM      8  N3  UNL d          25.156  14.523  30.369  0.00  0.00    -0.236 NA
ATOM      9  C4  UNL d          25.710  15.699  29.974  0.00  0.00     0.212 A 
ENDROOT
BRANCH   5  10
ATOM     10  N5  UNL d          22.171  16.646  34.522  0.00  0.00    -0.114 N 
ATOM     11  H8  UNL d          22.474  16.553  35.501  0.00  0.00     0.206 HD
BRANCH  10  12
ATOM     12 CA   UNL d          20.951  17.367  34.156  0.00  0.00     0.000 Ca
ATOM     13  HA  UNL d          20.390  17.509  35.097  0.00  0.00     0.000 HD
BRANCH  12  14
ATOM     14  CB  UNL d          19.881  16.521  33.434  0.00  0.00    -0.019 C 
BRANCH  14  15
ATOM     15  CG1 UNL d          20.181  16.292  31.931  0.00  0.00    -0.073 C 
ATOM     16 HG11 UNL d          20.474  15.245  31.749  0.00  0.00     0.028 Hg
ATOM     17 HG12 UNL d          19.308  16.506  31.295  0.00  0.00     0.028 Hg
ATOM     18 HG13 UNL d          21.017  16.929  31.598  0.00  0.00     0.028 Hg
ENDBRANCH  14  15
BRANCH  14  19
ATOM     19  CG2 UNL d          18.437  16.868  33.772  0.00  0.00    -0.073 C 
ATOM     20 HG21 UNL d          17.918  15.985  34.187  0.00  0.00     0.028 Hg
ATOM     21 HG22 UNL d          18.374  17.647  34.549  0.00  0.00     0.028 Hg
ATOM     22 HG23 UNL d          17.858  17.199  32.895  0.00  0.00     0.028 Hg
ENDBRANCH  14  19
ENDBRANCH  12  14
BRANCH  12  23
ATOM     23  C12 UNL d          21.151  18.808  33.653  0.00  0.00     0.190 C 
BRANCH  23  24
ATOM     24  O2  UNL d          22.328  19.301  34.236  0.00  0.00    -0.399 OA
ATOM     25  H9  UNL d          22.616  20.165  33.753  0.00  0.00     0.209 HD
ENDBRANCH  23  24
ENDBRANCH  12  23
ENDBRANCH  10  12
ENDBRANCH   5  10
BRANCH   6  26
ATOM     26  N4  UNL d          23.419  12.696  32.122  0.00  0.00    -0.338 N 
ATOM     27  H4  UNL d          22.927  12.353  31.285  0.00  0.00     0.167 HD
BRANCH  26  28
ATOM     28  C5  UNL d          23.935  11.769  32.979  0.00  0.00     0.035 A 
ATOM     29  C6  UNL d          23.064  11.006  33.783  0.00  0.00     0.030 A 
ATOM     30  C7  UNL d          23.569  10.092  34.696  0.00  0.00     0.022 A 
ATOM     31  C8  UNL d          24.962   9.939  34.828  0.00  0.00     0.062 A 
ATOM     32  C9  UNL d          25.876  10.774  33.999  0.00  0.00     0.053 A 
ATOM     33 Cl   UNL d          27.391  10.674  34.115  0.00  0.00    -0.083 Cl
ATOM     34  C10 UNL d          25.306  11.655  33.093  0.00  0.00     0.054 A 
BRANCH  31  35
ATOM     35  C11 UNL d          25.521   8.967  35.811  0.00  0.00     0.211 C 
ATOM     36  O   UNL d          25.552   7.756  35.532  0.00  0.00    -0.644 OA
ATOM     37  O1  UNL d          25.947   9.363  36.907  0.00  0.00    -0.644 OA
ENDBRANCH  31  35
ENDBRANCH  26  28
ENDBRANCH   6  26
BRANCH   2  38
ATOM     38  C   UNL d          25.696  18.167  30.449  0.00  0.00     0.084 C 
ATOM     39  C13 UNL d          26.937  18.079  29.580  0.00  0.00     0.032 C 
ATOM     40  C14 UNL d          24.668  19.020  29.717  0.00  0.00     0.032 C 
ENDBRANCH   2  38
TORSDOF 11
ENDMDL
