@<TRIPOS>MOLECULE
LIGAND
   31    32     1     0     0
SMALL
No Charge or Current Charge


@<TRIPOS>ATOM
      1 N           29.8760     4.1050    56.3530 nb         1 UNL       0.023700
      2 C           29.3430     5.0480    55.4730 ca         1 UNL       0.421100
      3 C1          29.5330     4.1550    57.6870 ca         1 UNL       0.327000
      4 C2          28.5300     5.1440    58.1820 cp         1 UNL       0.106700
      5 C3          28.0470     6.1130    57.1470 ca         1 UNL       0.092700
      6 N1          28.4140     6.0290    55.8370 na         1 UNL      -0.240400
      7 C4          28.1050     5.2380    59.5600 cp         1 UNL      -0.007100
      8 C5          28.7100     6.0880    60.5010 ca         1 UNL      -0.052300
      9 C6          28.2730     6.1450    61.8450 ca         1 UNL      -0.042800
     10 C7          27.1820     5.3060    62.2940 ca         1 UNL       0.041000
     11 C8          26.5410     4.4530    61.4010 ca         1 UNL      -0.042800
     12 C9          26.9930     4.4190    60.0470 ca         1 UNL      -0.052300
     13 N2          30.0320     3.2590    58.5670 nh         1 UNL      -0.245900
     14 N3          29.7100     4.9790    54.1210 nh         1 UNL      -0.241600
     15 C10         27.0510     7.1590    57.5690 c3         1 UNL      -0.000200
     16 C11         25.6780     7.1840    56.9350 c3         1 UNL      -0.058600
     17 Cl          26.7810     5.4560    63.9000 cl         1 UNL      -0.083500
     18 H           28.0180     6.6700    55.1340 hn         1 UNL       0.265100
     19 H1          29.5400     6.7210    60.1860 ha         1 UNL       0.062400
     20 H2          28.7600     6.8240    62.5460 ha         1 UNL       0.063200
     21 H3          25.7120     3.8250    61.7280 ha         1 UNL       0.063200
     22 H4          26.4880     3.7550    59.3460 ha         1 UNL       0.062400
     23 H5          29.7660     3.3100    59.5610 hn         1 UNL       0.288400
     24 H6          30.6780     2.5250    58.2440 hn         1 UNL       0.288400
     25 H7          29.3320     5.6620    53.4490 hn         1 UNL       0.242100
     26 H8          30.3580     4.2450    53.8000 hn         1 UNL       0.242100
     27 H9          27.5140     8.1490    57.3870 hc         1 UNL       0.033900
     28 H10         26.8900     7.1490    58.6600 hc         1 UNL       0.033900
     29 H11         25.0640     8.0080    57.3370 hc         1 UNL       0.023400
     30 H12         25.7270     7.3160    55.8420 hc         1 UNL       0.023400
     31 H13         25.1310     6.2460    57.1290 hc         1 UNL       0.023400
@<TRIPOS>BOND
     1     1     2 ar  
     2     1     3 ar  
     3     2     6 2   
     4     2    14 1   
     5     3     4 ar  
     6     3    13 1   
     7     4     5 ar  
     8     4     7 1   
     9     5     6 1   
    10     5    15 1   
    11     7     8 ar  
    12     7    12 ar  
    13     8     9 ar  
    14     9    10 ar  
    15    10    11 ar  
    16    10    17 1   
    17    11    12 ar  
    18    15    16 1   
    19     6    18 1   
    20     8    19 1   
    21     9    20 1   
    22    11    21 1   
    23    12    22 1   
    24    13    23 1   
    25    13    24 1   
    26    14    25 1   
    27    14    26 1   
    28    15    27 1   
    29    15    28 1   
    30    16    29 1   
    31    16    30 1   
    32    16    31 1   
@<TRIPOS>SUBSTRUCTURE
     1 UNL         1 TEMP              0 ****  ****    0 ROOT
