@<TRIPOS>MOLECULE
LIGAND
   55    56     1     0     0
SMALL
No Charge or Current Charge


@<TRIPOS>ATOM
      1 C           27.8590    41.3560    29.9450 c3         0 UNK      -0.069700
      2 H           28.8210    40.8310    30.0560 hc         0 UNK       0.021900
      3 H1          27.0760    40.5830    29.9510 hc         0 UNK       0.021900
      4 H2          27.8650    41.8430    28.9560 hc         0 UNK       0.021900
      5 C1          27.7080    42.3620    31.0920 c3         0 UNK      -0.004700
      6 H3          27.7610    41.8250    32.0500 hx         0 UNK       0.018100
      7 N           26.4000    42.9990    31.0150 n4         0 UNK       0.385900
      8 H4          26.2200    43.5820    31.8180 hn         0 UNK      -0.088900
      9 H5          26.3950    43.6080    30.2050 hn         0 UNK      -0.088900
     10 H6          25.6550    42.3260    30.9430 hn         0 UNK      -0.088900
     11 P           29.0160    43.5020    31.0260 p5         0 UNK       0.224500
     12 O           30.2300    42.6500    31.2230 o          0 UNK      -0.170800
     13 O1          28.9360    44.3150    29.7670 o          0 UNK      -0.289800
     14 C2          28.8610    44.5560    32.3940 c3         0 UNK       0.036700
     15 H7          28.0060    44.2720    33.0200 hc         0 UNK       0.037200
     16 H8          28.6090    45.5430    31.9710 hc         0 UNK       0.037200
     17 C3          30.1480    44.7420    33.2110 c3         0 UNK       0.048200
     18 H9          31.0230    44.7790    32.5410 hc         0 UNK       0.040200
     19 C4          30.3750    43.5780    34.1410 c          0 UNK       0.217600
     20 O2          31.5010    43.1770    34.3910 o          0 UNK      -0.275500
     21 N           29.3100    42.9860    34.6650 n          1 ALA      -0.302200
     22 H           28.3580    43.2720    34.3960 hn         1 ALA       0.149500
     23 CA          29.5280    41.9220    35.6310 c3         1 ALA       0.121800
     24 HA          30.5140    41.4530    35.4940 h1         1 ALA       0.061300
     25 CB          29.4470    42.4720    37.0530 c3         1 ALA      -0.036100
     26 HB1         29.6300    41.6690    37.7820 hc         1 ALA       0.025300
     27 HB2         30.2010    43.2570    37.2220 hc         1 ALA       0.025300
     28 HB3         28.4590    42.9110    37.2590 hc         1 ALA       0.025300
     29 C           28.5250    40.8350    35.4610 c          1 ALA       0.375600
     30 O           27.6000    40.9770    34.6580 o          1 ALA      -0.244300
     31 OXT         28.6470    39.8160    36.1230 o          1 ALA      -0.244300
     32 C5          30.0520    46.0510    34.0090 c3         0 UNK      -0.016100
     33 H10         29.2030    45.9970    34.7070 hc         0 UNK       0.032100
     34 H11         29.8480    46.8730    33.3010 hc         0 UNK       0.032100
     35 C6          31.3280    46.3400    34.7470 ca         0 UNK      -0.046600
     36 C7          31.3180    46.4890    36.1320 ca         0 UNK      -0.058000
     37 H12         30.3790    46.4080    36.6800 ha         0 UNK       0.062000
     38 C8          32.5010    46.7400    36.8190 ca         0 UNK      -0.053800
     39 H13         32.4820    46.8590    37.9020 ha         0 UNK       0.062400
     40 C9          33.7170    46.8410    36.1310 cp         0 UNK      -0.017900
     41 C10         33.7170    46.6950    34.7390 ca         0 UNK      -0.053800
     42 H14         34.6540    46.7760    34.1870 ha         0 UNK       0.062400
     43 C11         32.5330    46.4480    34.0540 ca         0 UNK      -0.058000
     44 H15         32.5470    46.3380    32.9700 ha         0 UNK       0.062000
     45 C12         34.9700    47.0860    36.8550 cp         0 UNK      -0.017900
     46 C13         36.1210    46.3480    36.5520 ca         0 UNK      -0.054000
     47 H16         36.0860    45.5890    35.7700 ha         0 UNK       0.062400
     48 C14         37.3100    46.5740    37.2400 ca         0 UNK      -0.061200
     49 H17         38.1990    45.9910    36.9970 ha         0 UNK       0.061800
     50 C15         37.3650    47.5440    38.2380 ca         0 UNK      -0.061700
     51 H18         38.2960    47.7230    38.7760 ha         0 UNK       0.061800
     52 C16         36.2260    48.2850    38.5470 ca         0 UNK      -0.061200
     53 H19         36.2670    49.0450    39.3270 ha         0 UNK       0.061800
     54 C17         35.0370    48.0560    37.8620 ca         0 UNK      -0.054000
     55 H20         34.1490    48.6370    38.1120 ha         0 UNK       0.062400
@<TRIPOS>BOND
     1     1     5 1   
     2     1     2 1   
     3     1     3 1   
     4     1     4 1   
     5     5     7 1   
     6     5    11 1   
     7     5     6 1   
     8     7     8 1   
     9     7     9 1   
    10     7    10 1   
    11    11    12 1   
    12    11    13 1   
    13    11    14 1   
    14    14    17 1   
    15    14    15 1   
    16    14    16 1   
    17    17    19 1   
    18    17    32 1   
    19    17    18 1   
    20    19    20 2   
    21    19    21 1   
    22    21    23 1   
    23    21    22 1   
    24    23    25 1   
    25    23    29 1   
    26    23    24 1   
    27    25    26 1   
    28    25    27 1   
    29    25    28 1   
    30    29    30 1   
    31    29    31 1   
    32    32    35 1   
    33    32    33 1   
    34    32    34 1   
    35    35    36 ar  
    36    35    43 ar  
    37    36    38 ar  
    38    36    37 1   
    39    38    40 ar  
    40    38    39 1   
    41    40    41 ar  
    42    40    45 1   
    43    41    43 ar  
    44    41    42 1   
    45    43    44 1   
    46    45    46 ar  
    47    45    54 ar  
    48    46    48 ar  
    49    46    47 1   
    50    48    50 ar  
    51    48    49 1   
    52    50    52 ar  
    53    50    51 1   
    54    52    54 ar  
    55    52    53 1   
    56    54    55 1   
@<TRIPOS>SUBSTRUCTURE
     1 UNK         1 TEMP              0 ****  ****    0 ROOT
