MODEL 1
REMARK VINA RESULT:      -7.3      0.000      0.000
REMARK  3 active torsions:
REMARK  status: ('A' for Active; 'I' for Inactive)
REMARK    1  A    between atoms: C_3  and  C1_4 
REMARK    2  A    between atoms: C1_4  and  C2_5 
REMARK    3  A    between atoms: C2_5  and  C3_6 
ROOT
ATOM      1  N   UNL d          -2.098   0.859  26.176  0.00  0.00    -0.338 N 
ATOM      2  H   UNL d          -1.399   0.909  26.931  0.00  0.00     0.167 HD
ATOM      3  C   UNL d          -3.401   1.042  26.309  0.00  0.00     0.105 A 
ATOM      4  N1  UNL d          -3.997   0.922  25.242  0.00  0.00    -0.227 NA
ATOM      5  C5  UNL d          -3.119   0.622  24.158  0.00  0.00     0.160 A 
ATOM      6  C6  UNL d          -3.318   0.386  22.697  0.00  0.00     0.291 A 
ATOM      7  N2  UNL d          -2.157   0.114  21.962  0.00  0.00    -0.262 N 
ATOM      8  H10 UNL d          -2.246  -0.055  20.950  0.00  0.00     0.190 HD
ATOM      9  N3  UNL d          -0.788   0.058  22.578  0.00  0.00    -0.262 N 
ATOM     10  H11 UNL d           0.016  -0.147  21.967  0.00  0.00     0.190 HD
ATOM     11  C7  UNL d          -0.547   0.272  23.948  0.00  0.00     0.289 A 
ATOM     12  O   UNL d           0.601   0.228  24.481  0.00  0.00    -0.264 OA
ATOM     13  C8  UNL d          -1.828   0.576  24.779  0.00  0.00     0.138 A 
ATOM     14  O1  UNL d          -4.444   0.434  22.208  0.00  0.00    -0.264 OA
ENDROOT
BRANCH   3  15
ATOM     15  C1  UNL d          -4.050   1.367  27.656  0.00  0.00     0.078 C 
BRANCH  15  16
ATOM     16  C2  UNL d          -3.141   1.289  28.925  0.00  0.00     0.007 C 
BRANCH  16  17
ATOM     17  C3  UNL d          -2.719   2.735  29.345  0.00  0.00    -0.004 C 
ATOM     18  C4  UNL d          -2.854   2.986  30.867  0.00  0.00     0.005 C 
ENDBRANCH  16  17
ENDBRANCH  15  16
ENDBRANCH   3  15
TORSDOF 3
ENDMDL
MODEL 2
REMARK VINA RESULT:      -7.2      2.143      2.906
REMARK  3 active torsions:
REMARK  status: ('A' for Active; 'I' for Inactive)
REMARK    1  A    between atoms: C_3  and  C1_4 
REMARK    2  A    between atoms: C1_4  and  C2_5 
REMARK    3  A    between atoms: C2_5  and  C3_6 
ROOT
ATOM      1  N   UNL d          -4.140   2.410  26.115  0.00  0.00    -0.338 N 
ATOM      2  H   UNL d          -4.378   3.370  25.826  0.00  0.00     0.167 HD
ATOM      3  C   UNL d          -4.058   1.970  27.358  0.00  0.00     0.105 A 
ATOM      4  N1  UNL d          -3.754   0.781  27.410  0.00  0.00    -0.227 NA
ATOM      5  C5  UNL d          -3.577   0.207  26.116  0.00  0.00     0.160 A 
ATOM      6  C6  UNL d          -3.218  -1.158  25.626  0.00  0.00     0.291 A 
ATOM      7  N2  UNL d          -3.149  -1.306  24.235  0.00  0.00    -0.262 N 
ATOM      8  H10 UNL d          -2.905  -2.230  23.853  0.00  0.00     0.190 HD
ATOM      9  N3  UNL d          -3.413  -0.181  23.275  0.00  0.00    -0.262 N 
ATOM     10  H11 UNL d          -3.342  -0.373  22.265  0.00  0.00     0.190 HD
ATOM     11  C7  UNL d          -3.754   1.122  23.684  0.00  0.00     0.289 A 
ATOM     12  O   UNL d          -3.979   2.079  22.887  0.00  0.00    -0.264 OA
ATOM     13  C8  UNL d          -3.835   1.302  25.228  0.00  0.00     0.138 A 
ATOM     14  O1  UNL d          -3.004  -2.067  26.425  0.00  0.00    -0.264 OA
ENDROOT
BRANCH   3  15
ATOM     15  C1  UNL d          -4.321   2.871  28.567  0.00  0.00     0.078 C 
BRANCH  15  16
ATOM     16  C2  UNL d          -3.082   3.325  29.403  0.00  0.00     0.007 C 
BRANCH  16  17
ATOM     17  C3  UNL d          -3.573   4.008  30.722  0.00  0.00    -0.004 C 
ATOM     18  C4  UNL d          -2.866   3.461  31.986  0.00  0.00     0.005 C 
ENDBRANCH  16  17
ENDBRANCH  15  16
ENDBRANCH   3  15
TORSDOF 3
ENDMDL
MODEL 3
REMARK VINA RESULT:      -7.2      2.464      3.941
REMARK  3 active torsions:
REMARK  status: ('A' for Active; 'I' for Inactive)
REMARK    1  A    between atoms: C_3  and  C1_4 
REMARK    2  A    between atoms: C1_4  and  C2_5 
REMARK    3  A    between atoms: C2_5  and  C3_6 
ROOT
ATOM      1  N   UNL d          -4.386   2.028  27.008  0.00  0.00    -0.338 N 
ATOM      2  H   UNL d          -4.980   2.570  26.364  0.00  0.00     0.167 HD
ATOM      3  C   UNL d          -4.201   2.278  28.292  0.00  0.00     0.105 A 
ATOM      4  N1  UNL d          -3.439   1.469  28.817  0.00  0.00    -0.227 NA
ATOM      5  C5  UNL d          -2.971   0.486  27.896  0.00  0.00     0.160 A 
ATOM      6  C6  UNL d          -2.056  -0.690  28.010  0.00  0.00     0.291 A 
ATOM      7  N2  UNL d          -1.855  -1.419  26.831  0.00  0.00    -0.262 N 
ATOM      8  H10 UNL d          -1.232  -2.239  26.863  0.00  0.00     0.190 HD
ATOM      9  N3  UNL d          -2.503  -1.064  25.523  0.00  0.00    -0.262 N 
ATOM     10  H11 UNL d          -2.303  -1.652  24.702  0.00  0.00     0.190 HD
ATOM     11  C7  UNL d          -3.371   0.034  25.363  0.00  0.00     0.289 A 
ATOM     12  O   UNL d          -3.924   0.346  24.267  0.00  0.00    -0.264 OA
ATOM     13  C8  UNL d          -3.605   0.854  26.665  0.00  0.00     0.138 A 
ATOM     14  O1  UNL d          -1.533  -0.967  29.086  0.00  0.00    -0.264 OA
ENDROOT
BRANCH   3  15
ATOM     15  C1  UNL d          -4.878   3.451  29.006  0.00  0.00     0.078 C 
BRANCH  15  16
ATOM     16  C2  UNL d          -3.959   4.422  29.815  0.00  0.00     0.007 C 
BRANCH  16  17
ATOM     17  C3  UNL d          -4.064   4.081  31.338  0.00  0.00    -0.004 C 
ATOM     18  C4  UNL d          -2.767   3.458  31.909  0.00  0.00     0.005 C 
ENDBRANCH  16  17
ENDBRANCH  15  16
ENDBRANCH   3  15
TORSDOF 3
ENDMDL
