@<TRIPOS>MOLECULE
MOL
   45    48     1     0     0
SMALL
No Charge or Current Charge


@<TRIPOS>ATOM
      1 C1          52.3440     6.1330   -11.7200 ca         1 MOL       0.000000
      2 N1          51.7810     7.1840   -11.0150 nb         1 MOL       0.000000
      3 C2          51.5880     7.0010    -9.6970 ca         1 MOL       0.000000
      4 C3          51.9260     5.7940    -9.0220 ca         1 MOL       0.000000
      5 C4          51.7230     5.5810    -7.6170 cc         1 MOL       0.000000
      6 C5          52.0720     4.3990    -7.0330 cd         1 MOL       0.000000
      7 C6          52.7150     3.2990    -7.8420 c          1 MOL       0.000000
      8 O1          53.0690     2.2030    -7.4040 o          1 MOL       0.000000
      9 N2          52.8960     3.5490    -9.2490 n          1 MOL       0.000000
     10 C7          52.5340     4.7640    -9.8340 ca         1 MOL       0.000000
     11 N3          52.7130     4.9470   -11.1670 nb         1 MOL       0.000000
     12 C8          53.5200     2.5130   -10.1100 c3         1 MOL       0.000000
     13 N4          52.4900     6.3550   -13.0610 nh         1 MOL       0.000000
     14 H1          52.9210     7.2510   -13.3280 hn         1 MOL       0.000000
     15 C9          52.1190     5.4970   -14.1300 ca         1 MOL       0.000000
     16 C10         52.0110     4.0710   -14.0310 ca         1 MOL       0.000000
     17 C11         51.5980     3.3120   -15.1700 ca         1 MOL       0.000000
     18 C12         51.2930     3.9560   -16.3860 ca         1 MOL       0.000000
     19 C13         51.3960     5.3880   -16.4970 ca         1 MOL       0.000000
     20 C14         51.8050     6.1450   -15.3730 ca         1 MOL       0.000000
     21 C15         51.0580     6.0810   -17.8070 c3         1 MOL       0.000000
     22 O2          51.6710     7.3330   -17.9370 oh         1 MOL       0.000000
     23 H2          51.2620     7.8350   -18.7380 ho         1 MOL       0.000000
     24 C16         51.8600     4.1350    -5.5940 ca         1 MOL       0.000000
     25 C17         52.8180     4.5120    -4.6110 ca         1 MOL       0.000000
     26 Cl1         54.2680     5.3670    -5.0860 cl         1 MOL       0.000000
     27 C18         52.5980     4.2290    -3.2220 ca         1 MOL       0.000000
     28 C19         51.4230     3.5340    -2.8130 ca         1 MOL       0.000000
     29 C20         50.4420     3.1460    -3.7730 ca         1 MOL       0.000000
     30 C21         50.6840     3.4380    -5.1520 ca         1 MOL       0.000000
     31 Cl2         49.4770     2.9620    -6.3120 cl         1 MOL       0.000000
     32 H3          51.1750     7.7720    -9.1490 h4         1 MOL       0.000000
     33 H4          51.3080     6.3310    -7.0420 ha         1 MOL       0.000000
     34 H5          53.5720     2.8700   -11.1170 h1         1 MOL       0.000000
     35 H6          52.9300     1.6210   -10.0790 h1         1 MOL       0.000000
     36 H7          54.5070     2.3010    -9.7550 h1         1 MOL       0.000000
     37 H8          52.2300     3.5950   -13.1420 ha         1 MOL       0.000000
     38 H9          51.5230     2.2850   -15.1010 ha         1 MOL       0.000000
     39 H10         50.9940     3.3980   -17.2010 ha         1 MOL       0.000000
     40 H11         51.8780     7.1720   -15.4470 ha         1 MOL       0.000000
     41 H12         51.3800     5.4580   -18.6150 h1         1 MOL       0.000000
     42 H13         50.0000     6.2390   -17.8220 h1         1 MOL       0.000000
     43 H14         53.2910     4.5290    -2.5180 ha         1 MOL       0.000000
     44 H15         51.2810     3.3100    -1.8160 ha         1 MOL       0.000000
     45 H16         49.5770     2.6660    -3.4790 ha         1 MOL       0.000000
@<TRIPOS>BOND
     1     1    11 ar  
     2     1     2 ar  
     3     2     3 ar  
     4     3     4 ar  
     5     3    32 1   
     6     4     5 1   
     7     5     6 2   
     8     5    33 1   
     9     6    24 1   
    10     7     8 2   
    11     7     6 1   
    12     9     7 1   
    13    10     9 1   
    14    10     4 ar  
    15    11    10 ar  
    16    12     9 1   
    17    12    34 1   
    18    12    35 1   
    19    12    36 1   
    20    13     1 1   
    21    14    13 1   
    22    15    16 ar  
    23    15    13 1   
    24    16    37 1   
    25    17    16 ar  
    26    17    38 1   
    27    18    17 ar  
    28    18    39 1   
    29    19    18 ar  
    30    19    20 ar  
    31    20    15 ar  
    32    20    40 1   
    33    21    19 1   
    34    21    41 1   
    35    21    42 1   
    36    22    21 1   
    37    23    22 1   
    38    24    30 ar  
    39    24    25 ar  
    40    25    27 ar  
    41    26    25 1   
    42    27    28 ar  
    43    27    43 1   
    44    28    44 1   
    45    29    28 ar  
    46    29    45 1   
    47    30    29 ar  
    48    31    30 1   
@<TRIPOS>SUBSTRUCTURE
     1 MOL         1 TEMP              0 ****  ****    0 ROOT
