@<TRIPOS>MOLECULE
MOL
   33    35     1     0     0
SMALL
No Charge or Current Charge


@<TRIPOS>ATOM
      1 C1          45.9650   110.9760    81.1240 c3         1 MOL       0.000000
      2 O1          45.4920   110.6130    82.4590 os         1 MOL       0.000000
      3 C2          44.8020   111.6040    80.3400 c3         1 MOL       0.000000
      4 C3          43.5600   111.4840    81.2680 c3         1 MOL       0.000000
      5 C4          44.0740   110.7850    82.5310 c3         1 MOL       0.000000
      6 N1          43.5320   111.2420    83.8520 na         1 MOL       0.000000
      7 C5          44.2440   111.9220    84.8710 cc         1 MOL       0.000000
      8 N2          43.5520   112.2070    85.9580 nd         1 MOL       0.000000
      9 C6          42.2810   111.6850    85.6640 ca         1 MOL       0.000000
     10 C7          41.0340   111.6350    86.4110 ca         1 MOL       0.000000
     11 C8          42.2530   111.0920    84.3720 ca         1 MOL       0.000000
     12 N3          40.8910   112.1400    87.6330 nh         1 MOL       0.000000
     13 N4          39.9500   111.0260    85.8050 nb         1 MOL       0.000000
     14 H1          39.9820   112.0750    88.1140 hn         1 MOL       0.000000
     15 H2          41.6880   112.5960    88.0980 hn         1 MOL       0.000000
     16 C9          40.0580   110.4980    84.5540 ca         1 MOL       0.000000
     17 C10         41.1520   110.4750    83.7500 ca         1 MOL       0.000000
     18 O2          42.4050   110.7940    80.7810 oh         1 MOL       0.000000
     19 H3          42.6200   109.7910    80.6820 ho         1 MOL       0.000000
     20 C11         46.6460   112.3180    81.4880 c3         1 MOL       0.000000
     21 O3          46.8800   113.1790    80.3750 oh         1 MOL       0.000000
     22 H4          47.8720   113.4560    80.3570 ho         1 MOL       0.000000
     23 O4          44.7360   110.8970    79.1010 oh         1 MOL       0.000000
     24 H5          44.6390   109.8880    79.2860 ho         1 MOL       0.000000
     25 H6          46.4660   110.1730    80.6250 h1         1 MOL       0.000000
     26 H7          44.8950   112.6400    80.0870 h1         1 MOL       0.000000
     27 H8          43.1830   112.4770    81.3980 h1         1 MOL       0.000000
     28 H9          43.6270   109.8130    82.5210 h2         1 MOL       0.000000
     29 H10         45.2390   112.1780    84.7700 h5         1 MOL       0.000000
     30 H11         39.2050   110.0620    84.1710 h4         1 MOL       0.000000
     31 H12         41.1730   110.0590    82.8060 ha         1 MOL       0.000000
     32 H13         46.0190   112.8340    82.1850 h1         1 MOL       0.000000
     33 H14         47.6060   112.0740    81.8940 h1         1 MOL       0.000000
@<TRIPOS>BOND
     1     1     3 1   
     2     1    20 1   
     3     1     2 1   
     4     1    25 1   
     5     2     5 1   
     6     3     4 1   
     7     3    26 1   
     8     4     5 1   
     9     4    27 1   
    10     5     6 1   
    11     5    28 1   
    12     6    11 1   
    13     6     7 1   
    14     7     8 2   
    15     7    29 1   
    16     9     8 1   
    17     9    10 ar  
    18    10    12 1   
    19    11     9 ar  
    20    12    15 1   
    21    12    14 1   
    22    13    10 ar  
    23    16    13 ar  
    24    16    30 1   
    25    17    11 ar  
    26    17    16 ar  
    27    17    31 1   
    28    18     4 1   
    29    19    18 1   
    30    20    32 1   
    31    20    33 1   
    32    21    20 1   
    33    22    21 1   
    34    23    24 1   
    35    23     3 1   
@<TRIPOS>SUBSTRUCTURE
     1 MOL         1 TEMP              0 ****  ****    0 ROOT
