@<TRIPOS>MOLECULE
MOL
   27    28     1     0     0
SMALL
No Charge or Current Charge


@<TRIPOS>ATOM
      1 N1          49.4940     9.2930     7.5100 n4         1 MOL       0.000000
      2 H1          48.9140     9.5660     8.2910 hn         1 MOL       0.000000
      3 C1          50.5830    10.2520     7.4420 c3         1 MOL       0.000000
      4 C2          49.8820    11.5190     6.9130 c3         1 MOL       0.000000
      5 C3          48.7640    10.9900     6.0040 c3         1 MOL       0.000000
      6 C4          48.7000     9.4720     6.3040 c3         1 MOL       0.000000
      7 C5          49.9070     7.8780     7.7520 c3         1 MOL       0.000000
      8 C6          51.2730    10.5200     8.7560 ca         1 MOL       0.000000
      9 C7          52.5480    10.0530     8.9900 ca         1 MOL       0.000000
     10 N2          53.2150    10.2880    10.1200 nb         1 MOL       0.000000
     11 C8          52.6230    10.9950    11.0880 ca         1 MOL       0.000000
     12 C9          51.3390    11.4960    10.9540 ca         1 MOL       0.000000
     13 C10         50.6710    11.2630     9.7660 ca         1 MOL       0.000000
     14 H2          51.3810     9.8890     6.8280 hx         1 MOL       0.000000
     15 H3          49.4740    12.0900     7.7210 hc         1 MOL       0.000000
     16 H4          50.5550    12.1690     6.3940 hc         1 MOL       0.000000
     17 H5          47.8320    11.4610     6.2390 hc         1 MOL       0.000000
     18 H6          48.9530    11.1910     4.9700 hc         1 MOL       0.000000
     19 H7          49.1150     8.9110     5.4930 hx         1 MOL       0.000000
     20 H8          47.6940     9.1290     6.4300 hx         1 MOL       0.000000
     21 H9          50.5260     7.5440     6.9460 hx         1 MOL       0.000000
     22 H10         49.0370     7.2580     7.8140 hx         1 MOL       0.000000
     23 H11         50.4530     7.8180     8.6700 hx         1 MOL       0.000000
     24 H12         53.0090     9.4940     8.2550 h4         1 MOL       0.000000
     25 H13         53.1400    11.1730    11.9630 h4         1 MOL       0.000000
     26 H14         50.8940    12.0280    11.7180 ha         1 MOL       0.000000
     27 H15         49.7210    11.6420     9.6280 ha         1 MOL       0.000000
@<TRIPOS>BOND
     1     1     7 1   
     2     1     2 1   
     3     3     1 1   
     4     3     8 1   
     5     3    14 1   
     6     4     3 1   
     7     4    15 1   
     8     4    16 1   
     9     5     6 1   
    10     5     4 1   
    11     5    17 1   
    12     5    18 1   
    13     6     1 1   
    14     6    19 1   
    15     6    20 1   
    16     7    21 1   
    17     7    22 1   
    18     7    23 1   
    19     8     9 ar  
    20     8    13 ar  
    21     9    10 ar  
    22     9    24 1   
    23    10    11 ar  
    24    11    25 1   
    25    12    11 ar  
    26    12    26 1   
    27    13    12 ar  
    28    13    27 1   
@<TRIPOS>SUBSTRUCTURE
     1 MOL         1 TEMP              0 ****  ****    0 ROOT
