@<TRIPOS>MOLECULE
LIGAND
   40    42     1     0     0
SMALL
No Charge or Current Charge


@<TRIPOS>ATOM
      1 O           22.6470    20.9330    95.3140 o          1 UNL      -0.269800
      2 C           25.6930    16.3610    99.7960 cx         1 UNL      -0.046800
      3 H           25.9790    16.2060   100.8420 hc         1 UNL       0.026900
      4 H1          24.8900    15.6800    99.5020 hc         1 UNL       0.026900
      5 C1          26.8180    16.6540    98.7740 cx         1 UNL      -0.046800
      6 H2          26.7490    16.2180    97.7750 hc         1 UNL       0.026900
      7 H3          27.8410    16.7330    99.1520 hc         1 UNL       0.026900
      8 C2          25.8470    17.6630    99.2810 cx         1 UNL      -0.006800
      9 H4          26.4220    18.1820   100.0790 hc         1 UNL       0.033400
     10 C3          21.9140    21.5700    96.0870 c          1 UNL       0.248400
     11 C4          22.1420    21.4560    97.5460 ca         1 UNL       0.040700
     12 C5          21.4590    22.2270    98.4930 ca         1 UNL      -0.045900
     13 H5          20.7170    22.9560    98.1670 ha         1 UNL       0.062600
     14 C6          21.7260    22.0640    99.8580 ca         1 UNL      -0.015400
     15 H6          21.1900    22.6740   100.5850 ha         1 UNL       0.065500
     16 C7          22.6740    21.1260   100.3060 ca         1 UNL       0.168300
     17 O1          22.9880    20.9160   101.6330 os         1 UNL      -0.430500
     18 C8          22.5860    21.7950   102.6720 c3         1 UNL       0.389400
     19 H7          23.0570    21.4620   103.6080 h3         1 UNL       0.152000
     20 F           21.2650    21.7020   102.7720 f          1 UNL      -0.166300
     21 F1          22.9860    23.0410   102.3750 f          1 UNL      -0.166300
     22 C9          23.3440    20.3430    99.3700 ca         1 UNL       0.162800
     23 O2          24.2750    19.4250    99.8160 os         1 UNL      -0.488000
     24 C10         25.0500    18.8290    98.7750 c3         1 UNL       0.092600
     25 H8          24.4040    18.4270    97.9820 h1         1 UNL       0.069900
     26 H9          25.7390    19.5680    98.3290 h1         1 UNL       0.069900
     27 C11         23.0780    20.5180    97.9980 ca         1 UNL      -0.004200
     28 H10         23.6140    19.9080    97.2700 ha         1 UNL       0.066300
     29 N           20.9540    22.3430    95.5880 n          1 UNL      -0.279000
     30 H11         20.3670    22.8900    96.2340 hn         1 UNL       0.155200
     31 C12         20.7150    22.4370    94.1990 ca         1 UNL       0.073600
     32 C13         20.8810    23.6610    93.5280 ca         1 UNL       0.081600
     33 Cl          21.4430    25.0540    94.3920 cl         1 UNL      -0.080000
     34 C14         20.6110    23.7170    92.1620 ca         1 UNL       0.047800
     35 H12         20.7400    24.6600    91.6320 h4         1 UNL       0.084500
     36 N1          20.1950    22.6330    91.4840 nb         1 UNL      -0.260200
     37 C15         20.0260    21.4460    92.0890 ca         1 UNL       0.047800
     38 H13         19.7020    20.5800    91.5120 h4         1 UNL       0.084500
     39 C16         20.2670    21.3230    93.4660 ca         1 UNL       0.081600
     40 Cl1         19.9900    19.7940    94.2420 cl         1 UNL      -0.080000
@<TRIPOS>BOND
     1     1    10 2   
     2     2     5 1   
     3     2     8 1   
     4     2     3 1   
     5     2     4 1   
     6     5     8 1   
     7     5     6 1   
     8     5     7 1   
     9     8    24 1   
    10     8     9 1   
    11    10    11 1   
    12    10    29 1   
    13    11    12 ar  
    14    11    27 ar  
    15    12    14 ar  
    16    12    13 1   
    17    14    16 ar  
    18    14    15 1   
    19    16    17 1   
    20    16    22 ar  
    21    17    18 1   
    22    18    20 1   
    23    18    21 1   
    24    18    19 1   
    25    22    23 1   
    26    22    27 ar  
    27    23    24 1   
    28    24    25 1   
    29    24    26 1   
    30    27    28 1   
    31    29    31 1   
    32    29    30 1   
    33    31    32 ar  
    34    31    39 ar  
    35    32    33 1   
    36    32    34 ar  
    37    34    36 ar  
    38    34    35 1   
    39    36    37 ar  
    40    37    39 ar  
    41    37    38 1   
    42    39    40 1   
@<TRIPOS>SUBSTRUCTURE
     1 UNL         1 TEMP              0 ****  ****    0 ROOT
