@<TRIPOS>MOLECULE
LIGAND
   35    36     1     0     0
SMALL
No Charge or Current Charge


@<TRIPOS>ATOM
      1 C           19.3390    39.6510    23.0300 c3         1 UNL      -0.004600
      2 H           19.0140    40.6370    23.3970 hc         1 UNL       0.030800
      3 H1          18.4410    39.1320    22.6600 hc         1 UNL       0.030800
      4 H2          19.7520    39.0860    23.8770 hc         1 UNL       0.030800
      5 N           23.9870    39.0710    21.4980 nh         1 UNL      -0.342800
      6 H3          24.7150    39.1430    20.7730 hn         1 UNL       0.143700
      7 H4          24.2240    38.7060    22.4310 hn         1 UNL       0.143700
      8 C1          25.6750    40.2260    16.9580 c3         1 UNL      -0.023500
      9 H5          25.8590    40.7150    15.9870 hc         1 UNL       0.029200
     10 H6          26.5700    39.6300    17.1990 hc         1 UNL       0.029200
     11 H7          24.8490    39.5200    16.7910 hc         1 UNL       0.029200
     12 O           28.1250    44.5160    15.9890 oh         1 UNL      -0.394700
     13 H8          28.6650    45.2480    16.4730 ho         1 UNL       0.209400
     14 C2          27.0400    44.1140    16.8020 c3         1 UNL       0.048700
     15 H9          26.1580    44.0310    16.1450 h1         1 UNL       0.056000
     16 H10         26.8220    44.8860    17.5600 h1         1 UNL       0.056000
     17 C3          27.3760    42.7450    17.4460 c3         1 UNL       0.003500
     18 H11         28.2670    42.8440    18.0890 hc         1 UNL       0.034100
     19 H12         27.6280    42.0280    16.6480 hc         1 UNL       0.034100
     20 C4          24.3100    42.1240    19.7210 cc         1 UNL       0.043200
     21 H13         23.5150    42.1590    20.4660 h5         1 UNL       0.088700
     22 S           25.5530    43.3650    19.6040 ss         1 UNL      -0.082000
     23 C5          26.1650    42.3590    18.2430 cc         1 UNL       0.012300
     24 C6          25.3950    41.2550    18.0460 cd         1 UNL       0.026200
     25 N1          24.4090    41.1850    18.8730 na         1 UNL      -0.339800
     26 C7          23.4190    40.0960    18.8720 c3         1 UNL       0.053200
     27 H14         23.9730    39.1380    18.8540 h1         1 UNL       0.054300
     28 H15         22.8980    40.1470    17.8980 h1         1 UNL       0.054300
     29 C8          22.6750    39.4700    21.2150 ca         1 UNL       0.124500
     30 N2          21.6930    39.3680    22.2080 nb         1 UNL      -0.217700
     31 C9          20.3740    39.7670    21.9510 ca         1 UNL       0.128000
     32 N3          20.0340    40.2820    20.6810 nb         1 UNL      -0.240100
     33 C10         21.0180    40.3880    19.6760 ca         1 UNL       0.037800
     34 H16         20.7530    40.7800    18.6940 h4         1 UNL       0.083400
     35 C11         22.3520    39.9850    19.9420 ca         1 UNL       0.029800
@<TRIPOS>BOND
     1     1    31 1   
     2     1     2 1   
     3     1     3 1   
     4     1     4 1   
     5     5    29 1   
     6     5     6 1   
     7     5     7 1   
     8     8    24 1   
     9     8     9 1   
    10     8    10 1   
    11     8    11 1   
    12    12    14 1   
    13    12    13 1   
    14    14    17 1   
    15    14    15 1   
    16    14    16 1   
    17    17    23 1   
    18    17    18 1   
    19    17    19 1   
    20    20    22 1   
    21    20    25 2   
    22    20    21 1   
    23    22    23 1   
    24    23    24 2   
    25    24    25 1   
    26    25    26 1   
    27    26    35 1   
    28    26    27 1   
    29    26    28 1   
    30    29    30 ar  
    31    29    35 ar  
    32    30    31 ar  
    33    31    32 ar  
    34    32    33 ar  
    35    33    35 ar  
    36    33    34 1   
@<TRIPOS>SUBSTRUCTURE
     1 UNL         1 TEMP              0 ****  ****    0 ROOT
