@<TRIPOS>MOLECULE
LIGAND
   43    44     1     0     0
SMALL
No Charge or Current Charge


@<TRIPOS>ATOM
      1 C           29.1850     1.4670     9.0150 ca         1 UNL      -0.034200
      2 H           28.5630     1.9990     8.2950 ha         1 UNL       0.063700
      3 C1          28.7480     1.3070    10.3270 ca         1 UNL      -0.024700
      4 H1          27.7850     1.7140    10.6350 ha         1 UNL       0.064700
      5 C2          29.5430     0.6260    11.2440 ca         1 UNL       0.123500
      6 F           29.1270     0.4660    12.5160 f          1 UNL      -0.205500
      7 C3          30.7730     0.1070    10.8520 ca         1 UNL      -0.024700
      8 H2          31.3940    -0.4260    11.5720 ha         1 UNL       0.064700
      9 C4          31.2100     0.2690     9.5410 ca         1 UNL      -0.034200
     10 H3          32.1740    -0.1360     9.2340 ha         1 UNL       0.063700
     11 C5          30.4160     0.9480     8.6230 ca         1 UNL       0.088500
     12 S           30.9610     1.1230     6.9710 sy         1 UNL       0.000100
     13 O           30.5010     2.4500     6.4430 o          1 UNL      -0.169300
     14 O1          32.4580     1.0530     6.9270 o          1 UNL      -0.169300
     15 C6          30.2570    -0.2330     5.9620 c3         1 UNL       0.107800
     16 H4          29.5020    -0.7600     6.5650 h1         1 UNL       0.053800
     17 H5          31.0980    -0.9280     5.8150 h1         1 UNL       0.053800
     18 C7          29.6810     0.2030     4.6120 c3         1 UNL       0.158300
     19 O2          30.6660     0.9590     3.9030 oh         1 UNL      -0.378000
     20 H6          31.4160     1.2390     4.5510 ho         1 UNL       0.210900
     21 C8          29.2760    -1.0210     3.7880 c3         1 UNL      -0.025900
     22 H7          28.8490    -0.7200     2.8180 hc         1 UNL       0.026300
     23 H8          30.1660    -1.6370     3.5870 hc         1 UNL       0.026300
     24 H9          28.5350    -1.6410     4.3140 hc         1 UNL       0.026300
     25 C9          28.4490     1.0870     4.8230 c          1 UNL       0.250300
     26 O3          27.4440     0.6410     5.3760 o          1 UNL      -0.272300
     27 N           28.6250     2.3570     4.4660 n          1 UNL      -0.283100
     28 H10         29.5580     2.6190     4.1170 hn         1 UNL       0.154900
     29 C10         27.7060     3.3220     4.5180 ca         1 UNL       0.034100
     30 C11         26.3660     3.0880     4.8190 ca         1 UNL      -0.027600
     31 H11         26.0640     2.0840     5.1160 ha         1 UNL       0.064200
     32 C12         28.0950     4.6030     4.1420 ca         1 UNL      -0.039200
     33 H12         29.1370     4.8080     3.8940 ha         1 UNL       0.063600
     34 C13         27.1500     5.6220     4.0830 ca         1 UNL      -0.042100
     35 H13         27.4590     6.6270     3.7950 ha         1 UNL       0.063100
     36 C14         25.8150     5.3730     4.3880 ca         1 UNL       0.063500
     37 C15         24.9330     6.4990     4.3240 cg         1 UNL       0.099700
     38 N1          24.2430     7.4020     4.2630 n1         1 UNL      -0.190900
     39 C16         25.3950     4.0900     4.7550 ca         1 UNL       0.073900
     40 C17         23.9310     3.7310     5.0750 c3         1 UNL       0.418700
     41 F1          23.7140     3.8720     6.3790 f          1 UNL      -0.165900
     42 F2          23.0300     4.4730     4.4370 f          1 UNL      -0.165900
     43 F3          23.6400     2.4740     4.7490 f          1 UNL      -0.165900
@<TRIPOS>BOND
     1     1     3 ar  
     2     1    11 ar  
     3     1     2 1   
     4     3     5 ar  
     5     3     4 1   
     6     5     6 1   
     7     5     7 ar  
     8     7     9 ar  
     9     7     8 1   
    10     9    11 ar  
    11     9    10 1   
    12    11    12 1   
    13    12    13 2   
    14    12    14 2   
    15    12    15 1   
    16    15    18 1   
    17    15    16 1   
    18    15    17 1   
    19    18    19 1   
    20    18    21 1   
    21    18    25 1   
    22    19    20 1   
    23    21    22 1   
    24    21    23 1   
    25    21    24 1   
    26    25    26 2   
    27    25    27 1   
    28    27    29 1   
    29    27    28 1   
    30    29    30 ar  
    31    29    32 ar  
    32    30    39 ar  
    33    30    31 1   
    34    32    34 ar  
    35    32    33 1   
    36    34    36 ar  
    37    34    35 1   
    38    36    37 1   
    39    36    39 ar  
    40    37    38 3   
    41    39    40 1   
    42    40    41 1   
    43    40    42 1   
    44    40    43 1   
@<TRIPOS>SUBSTRUCTURE
     1 UNL         1 TEMP              0 ****  ****    0 ROOT
