@<TRIPOS>MOLECULE
MOL
   43    44     1     0     0
SMALL
No Charge or Current Charge


@<TRIPOS>ATOM
      1 C1           1.3960    65.7510    69.4270 ca         1 MOL       0.000000
      2 C2           2.4800    64.8760    69.3840 ca         1 MOL       0.000000
      3 C3           0.2750    65.3940    70.1680 ca         1 MOL       0.000000
      4 C4           0.2590    64.1850    70.8560 ca         1 MOL       0.000000
      5 C5           1.3490    63.3220    70.8040 ca         1 MOL       0.000000
      6 C6           1.2380    62.1190    71.5720 cg         1 MOL       0.000000
      7 N1           1.1330    61.1640    72.1830 n1         1 MOL       0.000000
      8 C7           2.4840    63.6510    70.0540 ca         1 MOL       0.000000
      9 C8           3.7150    62.7330    69.9230 c3         1 MOL       0.000000
     10 F1           4.7190    63.4130    69.3790 f          1 MOL       0.000000
     11 F2           4.1500    62.2280    71.0740 f          1 MOL       0.000000
     12 F3           3.4730    61.6780    69.1490 f          1 MOL       0.000000
     13 N2           1.3300    66.8710    68.7070 n          1 MOL       0.000000
     14 C9           0.3720    67.1900    67.8390 c          1 MOL       0.000000
     15 O1          -0.5330    66.4370    67.4780 o          1 MOL       0.000000
     16 H1           2.0910    67.5540    68.8330 hn         1 MOL       0.000000
     17 C10          0.5480    68.5660    67.1920 c3         1 MOL       0.000000
     18 C11         -0.7320    69.3780    67.4010 c3         1 MOL       0.000000
     19 C12          0.8410    68.4140    65.6970 c3         1 MOL       0.000000
     20 S1           2.5830    68.0180    65.2920 sy         1 MOL       0.000000
     21 O2           2.9400    66.6620    65.8250 o          1 MOL       0.000000
     22 O3           3.4830    69.0530    65.8970 o          1 MOL       0.000000
     23 C13          2.7790    68.0170    63.5550 ca         1 MOL       0.000000
     24 C14          4.0090    67.6950    62.9870 ca         1 MOL       0.000000
     25 C15          4.1530    67.6760    61.6030 ca         1 MOL       0.000000
     26 C16          3.0660    67.9790    60.7880 ca         1 MOL       0.000000
     27 F4           3.1970    67.9620    59.4470 f          1 MOL       0.000000
     28 C17          1.8370    68.3000    61.3560 ca         1 MOL       0.000000
     29 C18          1.6940    68.3200    62.7400 ca         1 MOL       0.000000
     30 O4           1.6490    69.2260    67.8220 oh         1 MOL       0.000000
     31 H2           1.8210    68.8020    68.7450 ho         1 MOL       0.000000
     32 H3           3.3120    65.1440    68.8360 ha         1 MOL       0.000000
     33 H4          -0.5420    66.0230    70.2070 ha         1 MOL       0.000000
     34 H5          -0.5710    63.9250    71.4110 ha         1 MOL       0.000000
     35 H6          -0.6200    70.3430    66.9520 hc         1 MOL       0.000000
     36 H7          -0.9150    69.4910    68.4490 hc         1 MOL       0.000000
     37 H8          -1.5560    68.8680    66.9480 hc         1 MOL       0.000000
     38 H9           0.2240    67.6280    65.3150 h1         1 MOL       0.000000
     39 H10          0.6370    69.3650    65.2520 h1         1 MOL       0.000000
     40 H11          4.8140    67.4700    63.5930 ha         1 MOL       0.000000
     41 H12          5.0640    67.4380    61.1810 ha         1 MOL       0.000000
     42 H13          1.0320    68.5230    60.7510 ha         1 MOL       0.000000
     43 H14          0.7830    68.5600    63.1610 ha         1 MOL       0.000000
@<TRIPOS>BOND
     1     1     3 ar  
     2     2     1 ar  
     3     2     8 ar  
     4     2    32 1   
     5     3     4 ar  
     6     3    33 1   
     7     4    34 1   
     8     5     4 ar  
     9     5     6 1   
    10     6     7 3   
    11     8     5 ar  
    12     9     8 1   
    13     9    11 1   
    14    10     9 1   
    15    12     9 1   
    16    13    16 1   
    17    13     1 1   
    18    14    13 1   
    19    15    14 2   
    20    17    18 1   
    21    17    30 1   
    22    17    14 1   
    23    18    35 1   
    24    18    36 1   
    25    18    37 1   
    26    19    17 1   
    27    19    38 1   
    28    19    39 1   
    29    20    19 1   
    30    20    21 2   
    31    20    22 2   
    32    23    20 1   
    33    24    23 ar  
    34    24    40 1   
    35    25    24 ar  
    36    25    41 1   
    37    26    28 ar  
    38    26    25 ar  
    39    27    26 1   
    40    28    29 ar  
    41    28    42 1   
    42    29    23 ar  
    43    29    43 1   
    44    30    31 1   
@<TRIPOS>SUBSTRUCTURE
     1 MOL         1 TEMP              0 ****  ****    0 ROOT
