MODEL 1
REMARK VINA RESULT:      -6.8      0.000      0.000
REMARK  10 active torsions:
REMARK  status: ('A' for Active; 'I' for Inactive)
REMARK    1  A    between atoms: C_1  and  S_4 
REMARK    2  A    between atoms: S_4  and  C3_5 
REMARK    3  A    between atoms: C3_5  and  C4_6 
REMARK    4  A    between atoms: C4_6  and  C5_7 
REMARK    5  A    between atoms: C5_7  and  N_8 
REMARK    6  A    between atoms: C5_7  and  C6_11 
REMARK    7  A    between atoms: C6_11  and  O_12 
REMARK    8  A    between atoms: C6_11  and  C7_14 
REMARK       I    between atoms: C7_14  and  N1_16 
REMARK    9  A    between atoms: N1_16  and  N2_18 
REMARK       I    between atoms: N2_18  and  C8_20 
REMARK   10  A    between atoms: C8_20  and  C9_22 
ROOT
ATOM      1  C7  UNL d          22.120   6.904  31.993  0.00  0.00     0.267 C 
ATOM      2  O1  UNL d          21.251   6.338  32.629  0.00  0.00    -0.269 OA
ATOM      3  N1  UNL d          22.246   8.377  31.874  0.00  0.00    -0.265 N 
ATOM      4  H16 UNL d          23.022   8.770  31.323  0.00  0.00     0.190 HD
ENDROOT
BRANCH   1   5
ATOM      5  C6  UNL d          23.174   6.172  31.192  0.00  0.00     0.244 C 
BRANCH   5   6
ATOM      6  C5  UNL d          24.001   7.197  30.321  0.00  0.00     0.256 C 
BRANCH   6   7
ATOM      7  C4  UNL d          25.479   7.191  30.692  0.00  0.00     0.049 C 
BRANCH   7   8
ATOM      8  C3  UNL d          26.230   8.231  29.875  0.00  0.00     0.076 C 
BRANCH   8   9
ATOM      9  S   UNL d          25.646   9.900  30.168  0.00  0.00    -0.165 SA
BRANCH   9  10
ATOM     10  C   UNL d          24.958  10.350  28.599  0.00  0.00     0.039 C 
ATOM     11  C1  UNL d          25.539  11.663  28.075  0.00  0.00     0.021 C 
ATOM     12  C2  UNL d          23.446  10.464  28.722  0.00  0.00     0.021 C 
ENDBRANCH   9  10
ENDBRANCH   8   9
ENDBRANCH   7   8
ENDBRANCH   6   7
BRANCH   6  13
ATOM     13  N   UNL d          24.136   6.768  28.917  0.00  0.00     0.086 N 
ATOM     14  H12 UNL d          25.134   6.664  28.684  0.00  0.00     0.313 HD
ATOM     15  H13 UNL d          23.658   5.865  28.786  0.00  0.00     0.313 HD
ENDBRANCH   6  13
ENDBRANCH   5   6
BRANCH   5  16
ATOM     16  O   UNL d          22.525   5.204  30.376  0.00  0.00    -0.384 OA
ATOM     17  H15 UNL d          21.598   5.556  30.095  0.00  0.00     0.210 HD
ENDBRANCH   5  16
ENDBRANCH   1   5
BRANCH   3  18
ATOM     18  N2  UNL d          21.297   9.287  32.521  0.00  0.00    -0.263 N 
ATOM     19  C8  UNL d          21.490  10.647  32.547  0.00  0.00     0.270 C 
ATOM     20  O2  UNL d          22.505  11.118  31.992  0.00  0.00    -0.266 OA
ATOM     21  H17 UNL d          20.458   8.894  32.970  0.00  0.00     0.190 HD
BRANCH  19  22
ATOM     22  C9  UNL d          20.495  11.543  33.224  0.00  0.00     0.035 A 
ATOM     23  C10 UNL d          19.857  12.762  32.622  0.00  0.00     0.017 A 
ATOM     24  C11 UNL d          18.882  13.551  33.433  0.00  0.00     0.003 A 
ATOM     25  C12 UNL d          18.542  13.141  34.827  0.00  0.00     0.024 A 
ATOM     26  C13 UNL d          19.186  11.940  35.391  0.00  0.00     0.035 A 
ATOM     27  C14 UNL d          20.134  11.156  34.624  0.00  0.00     0.041 A 
ATOM     28 Cl   UNL d          18.849  11.411  36.982  0.00  0.00    -0.084 Cl
ENDBRANCH  19  22
ENDBRANCH   3  18
TORSDOF 10
ENDMDL
MODEL 2
REMARK VINA RESULT:      -6.7      2.354      4.168
REMARK  10 active torsions:
REMARK  status: ('A' for Active; 'I' for Inactive)
REMARK    1  A    between atoms: C_1  and  S_4 
REMARK    2  A    between atoms: S_4  and  C3_5 
REMARK    3  A    between atoms: C3_5  and  C4_6 
REMARK    4  A    between atoms: C4_6  and  C5_7 
REMARK    5  A    between atoms: C5_7  and  N_8 
REMARK    6  A    between atoms: C5_7  and  C6_11 
REMARK    7  A    between atoms: C6_11  and  O_12 
REMARK    8  A    between atoms: C6_11  and  C7_14 
REMARK       I    between atoms: C7_14  and  N1_16 
REMARK    9  A    between atoms: N1_16  and  N2_18 
REMARK       I    between atoms: N2_18  and  C8_20 
REMARK   10  A    between atoms: C8_20  and  C9_22 
ROOT
ATOM      1  C7  UNL d          23.960  12.525  29.754  0.00  0.00     0.267 C 
ATOM      2  O1  UNL d          23.275  13.345  29.171  0.00  0.00    -0.269 OA
ATOM      3  N1  UNL d          23.712  12.061  31.141  0.00  0.00    -0.265 N 
ATOM      4  H16 UNL d          24.338  11.354  31.552  0.00  0.00     0.190 HD
ENDROOT
BRANCH   1   5
ATOM      5  C6  UNL d          25.197  11.896  29.151  0.00  0.00     0.244 C 
BRANCH   5   6
ATOM      6  C5  UNL d          24.803  10.604  28.333  0.00  0.00     0.256 C 
BRANCH   6   7
ATOM      7  C4  UNL d          25.045   9.331  29.135  0.00  0.00     0.049 C 
BRANCH   7   8
ATOM      8  C3  UNL d          23.720   8.725  29.572  0.00  0.00     0.076 C 
BRANCH   8   9
ATOM      9  S   UNL d          23.810   7.943  31.182  0.00  0.00    -0.165 SA
BRANCH   9  10
ATOM     10  C   UNL d          22.445   6.817  31.142  0.00  0.00     0.039 C 
ATOM     11  C1  UNL d          22.023   6.377  32.544  0.00  0.00     0.021 C 
ATOM     12  C2  UNL d          22.814   5.601  30.306  0.00  0.00     0.021 C 
ENDBRANCH   9  10
ENDBRANCH   8   9
ENDBRANCH   7   8
ENDBRANCH   6   7
BRANCH   6  13
ATOM     13  N   UNL d          23.345  10.467  28.159  0.00  0.00     0.086 N 
ATOM     14  H12 UNL d          22.870  11.275  28.587  0.00  0.00     0.313 HD
ATOM     15  H13 UNL d          23.120  10.430  27.155  0.00  0.00     0.313 HD
ENDBRANCH   6  13
ENDBRANCH   5   6
BRANCH   5  16
ATOM     16  O   UNL d          26.101  11.587  30.206  0.00  0.00    -0.384 OA
ATOM     17  H15 UNL d          26.497  10.648  30.056  0.00  0.00     0.210 HD
ENDBRANCH   5  16
ENDBRANCH   1   5
BRANCH   3  18
ATOM     18  N2  UNL d          22.601  12.581  31.941  0.00  0.00    -0.263 N 
ATOM     19  C8  UNL d          21.500  11.818  32.248  0.00  0.00     0.270 C 
ATOM     20  O2  UNL d          21.456  10.640  31.837  0.00  0.00    -0.266 OA
ATOM     21  H17 UNL d          22.646  13.551  32.285  0.00  0.00     0.190 HD
BRANCH  19  22
ATOM     22  C9  UNL d          20.382  12.391  33.067  0.00  0.00     0.035 A 
ATOM     23  C10 UNL d          19.470  13.509  32.651  0.00  0.00     0.017 A 
ATOM     24  C11 UNL d          18.401  13.968  33.588  0.00  0.00     0.003 A 
ATOM     25  C12 UNL d          18.237  13.329  34.927  0.00  0.00     0.024 A 
ATOM     26  C13 UNL d          19.148  12.235  35.308  0.00  0.00     0.035 A 
ATOM     27  C14 UNL d          20.192  11.770  34.415  0.00  0.00     0.041 A 
ATOM     28 Cl   UNL d          19.023  11.457  36.827  0.00  0.00    -0.084 Cl
ENDBRANCH  19  22
ENDBRANCH   3  18
TORSDOF 10
ENDMDL
MODEL 3
REMARK VINA RESULT:      -6.7      2.068      3.524
REMARK  10 active torsions:
REMARK  status: ('A' for Active; 'I' for Inactive)
REMARK    1  A    between atoms: C_1  and  S_4 
REMARK    2  A    between atoms: S_4  and  C3_5 
REMARK    3  A    between atoms: C3_5  and  C4_6 
REMARK    4  A    between atoms: C4_6  and  C5_7 
REMARK    5  A    between atoms: C5_7  and  N_8 
REMARK    6  A    between atoms: C5_7  and  C6_11 
REMARK    7  A    between atoms: C6_11  and  O_12 
REMARK    8  A    between atoms: C6_11  and  C7_14 
REMARK       I    between atoms: C7_14  and  N1_16 
REMARK    9  A    between atoms: N1_16  and  N2_18 
REMARK       I    between atoms: N2_18  and  C8_20 
REMARK   10  A    between atoms: C8_20  and  C9_22 
ROOT
ATOM      1  C7  UNL d          22.111   6.838  31.807  0.00  0.00     0.267 C 
ATOM      2  O1  UNL d          21.421   6.317  32.663  0.00  0.00    -0.269 OA
ATOM      3  N1  UNL d          22.070   8.279  31.460  0.00  0.00    -0.265 N 
ATOM      4  H16 UNL d          22.700   8.637  30.728  0.00  0.00     0.190 HD
ENDROOT
BRANCH   1   5
ATOM      5  C6  UNL d          23.085   6.068  30.941  0.00  0.00     0.244 C 
BRANCH   5   6
ATOM      6  C5  UNL d          24.024   7.069  30.160  0.00  0.00     0.256 C 
BRANCH   6   7
ATOM      7  C4  UNL d          25.447   7.051  30.705  0.00  0.00     0.049 C 
BRANCH   7   8
ATOM      8  C3  UNL d          25.732   5.720  31.384  0.00  0.00     0.076 C 
BRANCH   8   9
ATOM      9  S   UNL d          27.355   5.072  30.990  0.00  0.00    -0.165 SA
BRANCH   9  10
ATOM     10  C   UNL d          27.296   3.439  31.672  0.00  0.00     0.039 C 
ATOM     11  C1  UNL d          26.211   3.304  32.740  0.00  0.00     0.021 C 
ATOM     12  C2  UNL d          28.653   3.087  32.262  0.00  0.00     0.021 C 
ENDBRANCH   9  10
ENDBRANCH   8   9
ENDBRANCH   7   8
ENDBRANCH   6   7
BRANCH   6  13
ATOM     13  N   UNL d          24.318   6.616  28.788  0.00  0.00     0.086 N 
ATOM     14  H12 UNL d          25.265   6.923  28.521  0.00  0.00     0.313 HD
ATOM     15  H13 UNL d          24.267   5.588  28.748  0.00  0.00     0.313 HD
ENDBRANCH   6  13
ENDBRANCH   5   6
BRANCH   5  16
ATOM     16  O   UNL d          22.339   5.251  30.046  0.00  0.00    -0.384 OA
ATOM     17  H15 UNL d          22.144   4.343  30.491  0.00  0.00     0.210 HD
ENDBRANCH   5  16
ENDBRANCH   1   5
BRANCH   3  18
ATOM     18  N2  UNL d          21.156   9.208  32.131  0.00  0.00    -0.263 N 
ATOM     19  C8  UNL d          21.521  10.495  32.444  0.00  0.00     0.270 C 
ATOM     20  O2  UNL d          22.667  10.883  32.136  0.00  0.00    -0.266 OA
ATOM     21  H17 UNL d          20.209   8.885  32.376  0.00  0.00     0.190 HD
BRANCH  19  22
ATOM     22  C9  UNL d          20.556  11.412  33.135  0.00  0.00     0.035 A 
ATOM     23  C10 UNL d          19.928  12.639  32.540  0.00  0.00     0.017 A 
ATOM     24  C11 UNL d          18.983  13.450  33.365  0.00  0.00     0.003 A 
ATOM     25  C12 UNL d          18.664  13.053  34.768  0.00  0.00     0.024 A 
ATOM     26  C13 UNL d          19.297  11.844  35.325  0.00  0.00     0.035 A 
ATOM     27  C14 UNL d          20.216  11.039  34.544  0.00  0.00     0.041 A 
ATOM     28 Cl   UNL d          18.983  11.330  36.926  0.00  0.00    -0.084 Cl
ENDBRANCH  19  22
ENDBRANCH   3  18
TORSDOF 10
ENDMDL
