MODEL 1
REMARK VINA RESULT:      -8.8      0.000      0.000
REMARK  5 active torsions:
REMARK  status: ('A' for Active; 'I' for Inactive)
REMARK    1  A    between atoms: O_1  and  C_3 
REMARK    2  A    between atoms: C_3  and  C1_4 
REMARK    3  A    between atoms: C5_8  and  N_9 
REMARK    4  A    between atoms: N_9  and  C6_11 
REMARK    5  A    between atoms: C10_16  and  C14_23 
ROOT
ATOM      1  C6  UNL d          52.344   6.133 -11.720  0.00  0.00     0.728 A 
ATOM      2  N1  UNL d          51.781   7.184 -11.015  0.00  0.00    -0.074 NA
ATOM      3  C7  UNL d          51.588   7.001  -9.697  0.00  0.00     0.151 A 
ATOM      4  C8  UNL d          51.926   5.794  -9.022  0.00  0.00     0.030 A 
ATOM      5  C9  UNL d          51.723   5.581  -7.617  0.00  0.00     0.034 A 
ATOM      6  C10 UNL d          52.072   4.399  -7.033  0.00  0.00     0.047 A 
ATOM      7  C11 UNL d          52.715   3.299  -7.842  0.00  0.00     0.260 A 
ATOM      8  O1  UNL d          53.069   2.203  -7.404  0.00  0.00    -0.267 OA
ATOM      9  N2  UNL d          52.896   3.549  -9.249  0.00  0.00    -0.301 N 
ATOM     10  C12 UNL d          52.534   4.764  -9.834  0.00  0.00     0.163 A 
ATOM     11  N3  UNL d          52.713   4.947 -11.167  0.00  0.00    -0.044 NA
ATOM     12  C13 UNL d          53.520   2.513 -10.110  0.00  0.00     0.161 C 
ENDROOT
BRANCH   1  13
ATOM     13  N   UNL d          52.490   6.355 -13.061  0.00  0.00    -0.188 N 
ATOM     14  H6  UNL d          52.921   7.251 -13.328  0.00  0.00     0.184 HD
BRANCH  13  15
ATOM     15  C5  UNL d          52.119   5.497 -14.130  0.00  0.00     0.050 A 
ATOM     16  C4  UNL d          52.011   4.071 -14.031  0.00  0.00     0.030 A 
ATOM     17  C3  UNL d          51.598   3.312 -15.170  0.00  0.00     0.003 A 
ATOM     18  C2  UNL d          51.293   3.956 -16.386  0.00  0.00     0.009 A 
ATOM     19  C1  UNL d          51.396   5.388 -16.497  0.00  0.00    -0.033 A 
ATOM     20  C20 UNL d          51.805   6.145 -15.373  0.00  0.00     0.039 A 
BRANCH  19  21
ATOM     21  C   UNL d          51.058   6.081 -17.807  0.00  0.00     0.203 C 
BRANCH  21  22
ATOM     22  O   UNL d          51.671   7.333 -17.937  0.00  0.00    -0.396 OA
ATOM     23  H   UNL d          51.262   7.835 -18.738  0.00  0.00     0.209 HD
ENDBRANCH  21  22
ENDBRANCH  19  21
ENDBRANCH  13  15
ENDBRANCH   1  13
BRANCH   6  24
ATOM     24  C14 UNL d          51.860   4.135  -5.594  0.00  0.00     0.023 A 
ATOM     25  C15 UNL d          52.818   4.512  -4.611  0.00  0.00     0.046 A 
ATOM     26 Cl   UNL d          54.268   5.367  -5.086  0.00  0.00    -0.083 Cl
ATOM     27  C16 UNL d          52.598   4.229  -3.222  0.00  0.00     0.025 A 
ATOM     28  C17 UNL d          51.423   3.534  -2.813  0.00  0.00     0.003 A 
ATOM     29  C18 UNL d          50.442   3.146  -3.773  0.00  0.00     0.025 A 
ATOM     30  C19 UNL d          50.684   3.438  -5.152  0.00  0.00     0.046 A 
ATOM     31 Cl1  UNL d          49.477   2.962  -6.312  0.00  0.00    -0.083 Cl
ENDBRANCH   6  24
TORSDOF 5
ENDMDL
MODEL 2
REMARK VINA RESULT:      -8.8      0.186      1.712
REMARK  5 active torsions:
REMARK  status: ('A' for Active; 'I' for Inactive)
REMARK    1  A    between atoms: O_1  and  C_3 
REMARK    2  A    between atoms: C_3  and  C1_4 
REMARK    3  A    between atoms: C5_8  and  N_9 
REMARK    4  A    between atoms: N_9  and  C6_11 
REMARK    5  A    between atoms: C10_16  and  C14_23 
ROOT
ATOM      1  C6  UNL d          52.317   6.111 -11.661  0.00  0.00     0.728 A 
ATOM      2  N1  UNL d          51.679   7.109 -10.943  0.00  0.00    -0.074 NA
ATOM      3  C7  UNL d          51.499   6.896  -9.628  0.00  0.00     0.151 A 
ATOM      4  C8  UNL d          51.925   5.709  -8.967  0.00  0.00     0.030 A 
ATOM      5  C9  UNL d          51.737   5.464  -7.566  0.00  0.00     0.034 A 
ATOM      6  C10 UNL d          52.171   4.303  -6.996  0.00  0.00     0.047 A 
ATOM      7  C11 UNL d          52.893   3.263  -7.819  0.00  0.00     0.260 A 
ATOM      8  O1  UNL d          53.326   2.190  -7.394  0.00  0.00    -0.267 OA
ATOM      9  N2  UNL d          53.056   3.543  -9.222  0.00  0.00    -0.301 N 
ATOM     10  C12 UNL d          52.606   4.735  -9.792  0.00  0.00     0.163 A 
ATOM     11  N3  UNL d          52.771   4.949 -11.122  0.00  0.00    -0.044 NA
ATOM     12  C13 UNL d          53.754   2.567 -10.095  0.00  0.00     0.161 C 
ENDROOT
BRANCH   1  13
ATOM     13  N   UNL d          52.447   6.360 -12.999  0.00  0.00    -0.188 N 
ATOM     14  H6  UNL d          52.835   7.279 -13.253  0.00  0.00     0.184 HD
BRANCH  13  15
ATOM     15  C5  UNL d          52.111   5.503 -14.079  0.00  0.00     0.050 A 
ATOM     16  C4  UNL d          52.008   4.076 -13.986  0.00  0.00     0.030 A 
ATOM     17  C3  UNL d          51.632   3.317 -15.138  0.00  0.00     0.003 A 
ATOM     18  C2  UNL d          51.358   3.962 -16.361  0.00  0.00     0.009 A 
ATOM     19  C1  UNL d          51.456   5.395 -16.466  0.00  0.00    -0.033 A 
ATOM     20  C20 UNL d          51.829   6.152 -15.330  0.00  0.00     0.039 A 
BRANCH  19  21
ATOM     21  C   UNL d          51.151   6.090 -17.784  0.00  0.00     0.203 C 
BRANCH  21  22
ATOM     22  O   UNL d          51.727   7.362 -17.877  0.00  0.00    -0.396 OA
ATOM     23  H   UNL d          51.053   8.015 -18.300  0.00  0.00     0.209 HD
ENDBRANCH  21  22
ENDBRANCH  19  21
ENDBRANCH  13  15
ENDBRANCH   1  13
BRANCH   6  24
ATOM     24  C14 UNL d          51.979   4.006  -5.561  0.00  0.00     0.023 A 
ATOM     25  C15 UNL d          50.895   3.210  -5.096  0.00  0.00     0.046 A 
ATOM     26 Cl   UNL d          49.778   2.501  -6.239  0.00  0.00    -0.083 Cl
ATOM     27  C16 UNL d          50.719   2.951  -3.696  0.00  0.00     0.025 A 
ATOM     28  C17 UNL d          51.618   3.518  -2.747  0.00  0.00     0.003 A 
ATOM     29  C18 UNL d          52.717   4.317  -3.181  0.00  0.00     0.025 A 
ATOM     30  C19 UNL d          52.872   4.562  -4.582  0.00  0.00     0.046 A 
ATOM     31 Cl1  UNL d          54.219   5.537  -5.097  0.00  0.00    -0.083 Cl
ENDBRANCH   6  24
TORSDOF 5
ENDMDL
MODEL 3
REMARK VINA RESULT:      -8.4      5.307      6.989
REMARK  5 active torsions:
REMARK  status: ('A' for Active; 'I' for Inactive)
REMARK    1  A    between atoms: O_1  and  C_3 
REMARK    2  A    between atoms: C_3  and  C1_4 
REMARK    3  A    between atoms: C5_8  and  N_9 
REMARK    4  A    between atoms: N_9  and  C6_11 
REMARK    5  A    between atoms: C10_16  and  C14_23 
ROOT
ATOM      1  C6  UNL d          47.017   2.526  -7.086  0.00  0.00     0.728 A 
ATOM      2  N1  UNL d          47.489   1.521  -6.259  0.00  0.00    -0.074 NA
ATOM      3  C7  UNL d          48.824   1.377  -6.173  0.00  0.00     0.151 A 
ATOM      4  C8  UNL d          49.742   2.197  -6.888  0.00  0.00     0.030 A 
ATOM      5  C9  UNL d          51.168   2.055  -6.810  0.00  0.00     0.034 A 
ATOM      6  C10 UNL d          51.991   2.877  -7.523  0.00  0.00     0.047 A 
ATOM      7  C11 UNL d          51.423   3.981  -8.382  0.00  0.00     0.260 A 
ATOM      8  O1  UNL d          52.084   4.774  -9.055  0.00  0.00    -0.267 OA
ATOM      9  N2  UNL d          49.988   4.087  -8.438  0.00  0.00    -0.301 N 
ATOM     10  C12 UNL d          49.158   3.238  -7.704  0.00  0.00     0.163 A 
ATOM     11  N3  UNL d          47.810   3.369  -7.800  0.00  0.00    -0.044 NA
ATOM     12  C13 UNL d          49.357   5.146  -9.264  0.00  0.00     0.161 C 
ENDROOT
BRANCH   1  13
ATOM     13  N   UNL d          45.655   2.611  -7.166  0.00  0.00    -0.188 N 
ATOM     14  H6  UNL d          45.174   2.981  -6.334  0.00  0.00     0.184 HD
BRANCH  13  15
ATOM     15  C5  UNL d          44.824   2.250  -8.259  0.00  0.00     0.050 A 
ATOM     16  C4  UNL d          43.394   2.357  -8.265  0.00  0.00     0.030 A 
ATOM     17  C3  UNL d          42.663   1.990  -9.437  0.00  0.00     0.003 A 
ATOM     18  C2  UNL d          43.337   1.530 -10.586  0.00  0.00     0.009 A 
ATOM     19  C1  UNL d          44.773   1.421 -10.592  0.00  0.00    -0.033 A 
ATOM     20  C20 UNL d          45.503   1.781  -9.434  0.00  0.00     0.039 A 
BRANCH  19  21
ATOM     21  C   UNL d          45.499   0.932 -11.836  0.00  0.00     0.203 C 
BRANCH  21  22
ATOM     22  O   UNL d          45.335   1.783 -12.935  0.00  0.00    -0.396 OA
ATOM     23  H   UNL d          45.872   1.419 -13.734  0.00  0.00     0.209 HD
ENDBRANCH  21  22
ENDBRANCH  19  21
ENDBRANCH  13  15
ENDBRANCH   1  13
BRANCH   6  24
ATOM     24  C14 UNL d          53.463   2.749  -7.484  0.00  0.00     0.023 A 
ATOM     25  C15 UNL d          54.256   3.472  -6.549  0.00  0.00     0.046 A 
ATOM     26 Cl   UNL d          53.489   4.503  -5.364  0.00  0.00    -0.083 Cl
ATOM     27  C16 UNL d          55.685   3.345  -6.544  0.00  0.00     0.025 A 
ATOM     28  C17 UNL d          56.332   2.510  -7.501  0.00  0.00     0.003 A 
ATOM     29  C18 UNL d          55.564   1.769  -8.448  0.00  0.00     0.025 A 
ATOM     30  C19 UNL d          54.141   1.912  -8.435  0.00  0.00     0.046 A 
ATOM     31 Cl1  UNL d          53.218   0.999  -9.594  0.00  0.00    -0.083 Cl
ENDBRANCH   6  24
TORSDOF 5
ENDMDL
