@<TRIPOS>MOLECULE
LIGAND
   50    53     1     0     0
SMALL
No Charge or Current Charge


@<TRIPOS>ATOM
      1 C           18.9620    -8.0070    12.9180 c3         1 UNL       0.078800
      2 H           18.9960    -9.0940    13.0830 h1         1 UNL       0.066000
      3 H1          19.6790    -7.7640    12.1170 h1         1 UNL       0.066000
      4 H2          19.2780    -7.5190    13.8540 h1         1 UNL       0.066000
      5 O           17.6310    -7.6670    12.5680 os         1 UNL      -0.495100
      6 C1          17.6080    -6.4090    11.9280 ca         1 UNL       0.120100
      7 C2          18.3940    -5.3380    12.4250 ca         1 UNL      -0.019400
      8 H3          19.0510    -5.4930    13.2810 ha         1 UNL       0.065400
      9 C3          18.3210    -4.0440    11.7950 ca         1 UNL      -0.050400
     10 H4          18.9130    -3.2140    12.1810 ha         1 UNL       0.062500
     11 C4          16.7450    -6.1960    10.8440 ca         1 UNL      -0.019400
     12 H5          16.1220    -7.0130    10.4790 ha         1 UNL       0.065400
     13 C5          16.6770    -4.9250    10.2200 ca         1 UNL      -0.050400
     14 H6          15.9990    -4.7710     9.3800 ha         1 UNL       0.062500
     15 C6          17.4810    -3.8550    10.6780 ca         1 UNL      -0.013300
     16 C7          17.3310    -2.4950    10.0540 cc         1 UNL       0.040600
     17 C8          16.1970    -1.8060     9.9290 ca         1 UNL       0.087800
     18 C9          14.9220    -1.9560    10.4670 ca         1 UNL       0.133600
     19 N           14.6190    -3.0080    11.2120 nh         1 UNL      -0.326200
     20 H7          15.3600    -3.6530    11.5210 hn         1 UNL       0.147600
     21 C10         13.2030    -3.2550    11.6010 c3         1 UNL       0.033600
     22 H8          13.1660    -4.2950    11.9660 h1         1 UNL       0.048400
     23 H9          12.5670    -3.2290    10.7000 h1         1 UNL       0.048400
     24 C11         12.5240    -2.3810    12.7310 c3         1 UNL       0.059700
     25 H10         13.1390    -2.3950    13.6460 h1         1 UNL       0.057300
     26 H11         11.5800    -2.8890    12.9730 h1         1 UNL       0.057300
     27 O1          12.1040    -0.9840    12.4450 oh         1 UNL      -0.393500
     28 H12         12.9190    -0.3580    12.5160 ho         1 UNL       0.209500
     29 N1          13.9850    -1.0330    10.2090 nb         1 UNL      -0.220100
     30 C12         14.2790     0.0380     9.4700 ca         1 UNL       0.121900
     31 H13         13.5100     0.7840     9.2720 h5         1 UNL       0.104900
     32 N2          15.5230     0.2070     8.9640 nb         1 UNL      -0.200500
     33 C13         16.4790    -0.7010     9.1890 ca         1 UNL       0.233100
     34 O2          17.7140    -0.7390     8.8380 os         1 UNL      -0.436000
     35 C14         18.2670    -1.8180     9.2740 cd         1 UNL       0.146000
     36 C15         19.5820    -2.1570     9.0700 ca         1 UNL       0.018200
     37 C16         20.4510    -1.2110     8.5100 ca         1 UNL      -0.047600
     38 H14         20.0840    -0.2140     8.2670 ha         1 UNL       0.062600
     39 C17         21.7700    -1.5370     8.2650 ca         1 UNL      -0.019300
     40 H15         22.4470    -0.7900     7.8500 ha         1 UNL       0.065400
     41 C18         22.2320    -2.8040     8.5440 ca         1 UNL       0.120100
     42 O3          23.5290    -3.1180     8.3000 os         1 UNL      -0.495100
     43 C19         24.5290    -2.0490     8.1770 c3         1 UNL       0.078800
     44 H16         25.5010    -2.5570     8.1680 h1         1 UNL       0.066000
     45 H17         24.4050    -1.4990     7.2340 h1         1 UNL       0.066000
     46 H18         24.4850    -1.3640     9.0340 h1         1 UNL       0.066000
     47 C20         21.3610    -3.7670     9.0800 ca         1 UNL      -0.019300
     48 H19         21.7270    -4.7680     9.3070 ha         1 UNL       0.065400
     49 C21         20.0290    -3.4400     9.3210 ca         1 UNL      -0.047600
     50 H20         19.3420    -4.1930     9.7060 ha         1 UNL       0.062600
@<TRIPOS>BOND
     1     1     5 1   
     2     1     2 1   
     3     1     3 1   
     4     1     4 1   
     5     5     6 1   
     6     6     7 ar  
     7     6    11 ar  
     8     7     9 ar  
     9     7     8 1   
    10     9    15 ar  
    11     9    10 1   
    12    11    13 ar  
    13    11    12 1   
    14    13    15 ar  
    15    13    14 1   
    16    15    16 1   
    17    16    17 1   
    18    16    35 2   
    19    17    18 ar  
    20    17    33 ar  
    21    18    19 1   
    22    18    29 ar  
    23    19    21 1   
    24    19    20 1   
    25    21    24 1   
    26    21    22 1   
    27    21    23 1   
    28    24    27 1   
    29    24    25 1   
    30    24    26 1   
    31    27    28 1   
    32    29    30 ar  
    33    30    32 ar  
    34    30    31 1   
    35    32    33 ar  
    36    33    34 1   
    37    34    35 1   
    38    35    36 1   
    39    36    37 ar  
    40    36    49 ar  
    41    37    39 ar  
    42    37    38 1   
    43    39    41 ar  
    44    39    40 1   
    45    41    42 1   
    46    41    47 ar  
    47    42    43 1   
    48    43    44 1   
    49    43    45 1   
    50    43    46 1   
    51    47    49 ar  
    52    47    48 1   
    53    49    50 1   
@<TRIPOS>SUBSTRUCTURE
     1 UNL         1 TEMP              0 ****  ****    0 ROOT
