@<TRIPOS>MOLECULE
MOL
   52    51     1     0     0
SMALL
No Charge or Current Charge


@<TRIPOS>ATOM
      1 N1          11.4150    23.9310    33.7620 n          1 MOL       0.000000
      2 H1          11.6310    24.5550    34.5530 hn         1 MOL       0.000000
      3 C1          10.2580    24.0270    33.0890 c          1 MOL       0.000000
      4 O1           9.9220    23.3060    32.1500 o          1 MOL       0.000000
      5 C2           9.3550    25.1500    33.5790 c3         1 MOL       0.000000
      6 C3          10.0320    26.4890    33.2920 c3         1 MOL       0.000000
      7 C4          10.6050    27.1170    34.5320 c          1 MOL       0.000000
      8 N2           9.8510    28.0470    35.1380 n          1 MOL       0.000000
      9 O2          10.4050    28.3910    36.3500 oh         1 MOL       0.000000
     10 H2           8.9830    28.4450    34.7520 hn         1 MOL       0.000000
     11 O3          11.7030    26.7730    34.9620 o          1 MOL       0.000000
     12 O4          11.0190    26.3620    32.2810 oh         1 MOL       0.000000
     13 H3          10.7260    26.8900    31.4470 ho         1 MOL       0.000000
     14 C5           7.9910    25.0660    32.8800 c3         1 MOL       0.000000
     15 C6           6.7970    25.4220    33.7790 c3         1 MOL       0.000000
     16 C7           5.5860    24.5680    33.4590 c3         1 MOL       0.000000
     17 C8           7.1750    25.2440    35.2490 c3         1 MOL       0.000000
     18 C9          12.3510    22.9060    33.3230 c3         1 MOL       0.000000
     19 C10         13.5680    23.5660    32.6620 c3         1 MOL       0.000000
     20 C11         13.9450    24.8460    33.4320 c3         1 MOL       0.000000
     21 C12         14.7570    22.5900    32.6650 c3         1 MOL       0.000000
     22 C13         13.2030    23.9300    31.2110 c3         1 MOL       0.000000
     23 C14         12.7780    22.0040    34.4690 c          1 MOL       0.000000
     24 O5          13.1630    22.4840    35.5360 o          1 MOL       0.000000
     25 N3          12.6670    20.6880    34.1970 n          1 MOL       0.000000
     26 C15         13.1160    19.7370    35.2100 c3         1 MOL       0.000000
     27 H4          12.2770    20.3630    33.3010 hn         1 MOL       0.000000
     28 H5           9.1940    25.0580    34.6330 hc         1 MOL       0.000000
     29 H6           9.2700    27.1480    32.9310 h1         1 MOL       0.000000
     30 H7          11.2180    27.8810    36.4900 ho         1 MOL       0.000000
     31 H8           7.8570    24.0650    32.5260 hc         1 MOL       0.000000
     32 H9           8.0060    25.7880    32.0900 hc         1 MOL       0.000000
     33 H10          6.5440    26.4450    33.5930 hc         1 MOL       0.000000
     34 H11          5.8180    23.5390    33.6380 hc         1 MOL       0.000000
     35 H12          5.3180    24.6990    32.4310 hc         1 MOL       0.000000
     36 H13          4.7670    24.8630    34.0810 hc         1 MOL       0.000000
     37 H14          7.4280    24.2200    35.4310 hc         1 MOL       0.000000
     38 H15          6.3470    25.5220    35.8670 hc         1 MOL       0.000000
     39 H16          8.0160    25.8650    35.4790 hc         1 MOL       0.000000
     40 H17         11.8560    22.2850    32.6060 h1         1 MOL       0.000000
     41 H18         14.7940    25.3040    32.9690 hc         1 MOL       0.000000
     42 H19         14.1830    24.5960    34.4450 hc         1 MOL       0.000000
     43 H20         13.1200    25.5270    33.4170 hc         1 MOL       0.000000
     44 H21         14.4910    21.7030    32.1290 hc         1 MOL       0.000000
     45 H22         15.0080    22.3360    33.6740 hc         1 MOL       0.000000
     46 H23         15.5990    23.0520    32.1940 hc         1 MOL       0.000000
     47 H24         12.9410    23.0410    30.6750 hc         1 MOL       0.000000
     48 H25         14.0420    24.3970    30.7390 hc         1 MOL       0.000000
     49 H26         12.3730    24.6050    31.2110 hc         1 MOL       0.000000
     50 H27         12.9660    18.7390    34.8540 h1         1 MOL       0.000000
     51 H28         12.5550    19.8830    36.1090 h1         1 MOL       0.000000
     52 H29         14.1560    19.8920    35.4090 h1         1 MOL       0.000000
@<TRIPOS>BOND
     1     1     2 1   
     2     3     5 1   
     3     3     1 1   
     4     4     3 2   
     5     5    28 1   
     6     6     5 1   
     7     6     7 1   
     8     6    29 1   
     9     7    11 2   
    10     7     8 1   
    11     8     9 1   
    12     9    30 1   
    13    10     8 1   
    14    12     6 1   
    15    13    12 1   
    16    14     5 1   
    17    14    15 1   
    18    14    31 1   
    19    14    32 1   
    20    15    17 1   
    21    15    33 1   
    22    16    15 1   
    23    16    34 1   
    24    16    35 1   
    25    16    36 1   
    26    17    37 1   
    27    17    38 1   
    28    17    39 1   
    29    18     1 1   
    30    18    23 1   
    31    18    40 1   
    32    19    21 1   
    33    19    18 1   
    34    19    20 1   
    35    20    41 1   
    36    20    42 1   
    37    20    43 1   
    38    21    44 1   
    39    21    45 1   
    40    21    46 1   
    41    22    19 1   
    42    22    47 1   
    43    22    48 1   
    44    22    49 1   
    45    23    24 2   
    46    25    23 1   
    47    25    26 1   
    48    26    50 1   
    49    26    51 1   
    50    26    52 1   
    51    27    25 1   
@<TRIPOS>SUBSTRUCTURE
     1 MOL         1 TEMP              0 ****  ****    0 ROOT
