MODEL 1
REMARK VINA RESULT:      -8.4      0.000      0.000
REMARK  4 active torsions:
REMARK  status: ('A' for Active; 'I' for Inactive)
REMARK    1  A    between atoms: C2_3  and  N2_8 
REMARK    2  A    between atoms: C3_5  and  N3_15 
REMARK    3  A    between atoms: C7_14  and  S_18 
REMARK    4  A    between atoms: S_18  and  C8_19 
ROOT
ATOM      1  C   UNL d          36.410  10.116  34.626  0.00  0.00     0.064 A 
ATOM      2  C1  UNL d          37.367   9.781  35.622  0.00  0.00     0.054 A 
ATOM      3  C2  UNL d          37.532  10.669  36.726  0.00  0.00     0.154 A 
ATOM      4  N   UNL d          36.881  11.809  36.808  0.00  0.00    -0.047 NA
ATOM      5  C3  UNL d          36.001  12.186  35.851  0.00  0.00     0.700 A 
ATOM      6  N1  UNL d          35.686  11.378  34.801  0.00  0.00    -0.189 N 
ATOM      7  H   UNL d          34.948  11.651  34.137  0.00  0.00     0.184 HD
ATOM      8  C4  UNL d          36.164   9.324  33.518  0.00  0.00     0.031 A 
ATOM      9  C5  UNL d          36.876   8.134  33.373  0.00  0.00     0.004 A 
ATOM     10  C6  UNL d          37.817   7.740  34.350  0.00  0.00     0.020 A 
ATOM     11  C7  UNL d          38.078   8.524  35.395  0.00  0.00     0.021 A 
ENDROOT
BRANCH  11  12
ATOM     12  S   UNL d          39.390   8.091  36.546  0.00  0.00    -0.090 SA
BRANCH  12  13
ATOM     13  C8  UNL d          39.791   6.418  36.076  0.00  0.00     0.005 A 
ATOM     14  C9  UNL d          40.059   5.495  37.052  0.00  0.00     0.019 A 
ATOM     15  C10 UNL d          40.421   4.167  36.709  0.00  0.00     0.001 A 
ATOM     16  C11 UNL d          40.582   3.876  35.326  0.00  0.00     0.000 A 
ATOM     17  C12 UNL d          40.312   4.799  34.336  0.00  0.00     0.001 A 
ATOM     18  C13 UNL d          39.941   6.144  34.685  0.00  0.00     0.019 A 
ENDBRANCH  12  13
ENDBRANCH  11  12
BRANCH   3  19
ATOM     19  N2  UNL d          38.364  10.569  37.780  0.00  0.00    -0.383 N 
ATOM     20  H1  UNL d          39.315  10.960  37.724  0.00  0.00     0.157 HD
ATOM     21  H2  UNL d          38.050  10.102  38.643  0.00  0.00     0.157 HD
ENDBRANCH   3  19
BRANCH   5  22
ATOM     22  N3  UNL d          35.328  13.341  35.876  0.00  0.00    -0.233 N 
ATOM     23  H6  UNL d          34.495  13.464  35.283  0.00  0.00     0.174 HD
ATOM     24  H7  UNL d          35.643  14.107  36.489  0.00  0.00     0.174 HD
ENDBRANCH   5  22
TORSDOF 4
ENDMDL
MODEL 2
REMARK VINA RESULT:      -8.2      3.878      6.172
REMARK  4 active torsions:
REMARK  status: ('A' for Active; 'I' for Inactive)
REMARK    1  A    between atoms: C2_3  and  N2_8 
REMARK    2  A    between atoms: C3_5  and  N3_15 
REMARK    3  A    between atoms: C7_14  and  S_18 
REMARK    4  A    between atoms: S_18  and  C8_19 
ROOT
ATOM      1  C   UNL d          40.789   4.951  36.546  0.00  0.00     0.064 A 
ATOM      2  C1  UNL d          39.797   5.260  35.577  0.00  0.00     0.054 A 
ATOM      3  C2  UNL d          39.102   6.501  35.692  0.00  0.00     0.154 A 
ATOM      4  N   UNL d          39.304   7.322  36.700  0.00  0.00    -0.047 NA
ATOM      5  C3  UNL d          40.203   7.036  37.670  0.00  0.00     0.700 A 
ATOM      6  N1  UNL d          40.996   5.930  37.617  0.00  0.00    -0.189 N 
ATOM      7  H   UNL d          41.733   5.784  38.321  0.00  0.00     0.184 HD
ATOM      8  C4  UNL d          41.528   3.780  36.525  0.00  0.00     0.031 A 
ATOM      9  C5  UNL d          41.300   2.863  35.500  0.00  0.00     0.004 A 
ATOM     10  C6  UNL d          40.346   3.136  34.494  0.00  0.00     0.020 A 
ATOM     11  C7  UNL d          39.611   4.246  34.541  0.00  0.00     0.021 A 
ENDROOT
BRANCH  11  12
ATOM     12  S   UNL d          38.291   4.506  33.348  0.00  0.00    -0.090 SA
BRANCH  12  13
ATOM     13  C8  UNL d          38.094   2.892  32.618  0.00  0.00     0.005 A 
ATOM     14  C9  UNL d          38.751   2.600  31.451  0.00  0.00     0.019 A 
ATOM     15  C10 UNL d          38.583   1.339  30.824  0.00  0.00     0.001 A 
ATOM     16  C11 UNL d          37.639   0.448  31.406  0.00  0.00     0.000 A 
ATOM     17  C12 UNL d          36.975   0.732  32.581  0.00  0.00     0.001 A 
ATOM     18  C13 UNL d          37.150   2.009  33.219  0.00  0.00     0.019 A 
ENDBRANCH  12  13
ENDBRANCH  11  12
BRANCH   3  19
ATOM     19  N2  UNL d          38.133   7.008  34.907  0.00  0.00    -0.383 N 
ATOM     20  H1  UNL d          37.947   8.021  34.908  0.00  0.00     0.157 HD
ATOM     21  H2  UNL d          37.578   6.384  34.304  0.00  0.00     0.157 HD
ENDBRANCH   3  19
BRANCH   5  22
ATOM     22  N3  UNL d          40.433   7.826  38.724  0.00  0.00    -0.233 N 
ATOM     23  H6  UNL d          39.745   8.546  38.988  0.00  0.00     0.174 HD
ATOM     24  H7  UNL d          41.298   7.715  39.272  0.00  0.00     0.174 HD
ENDBRANCH   5  22
TORSDOF 4
ENDMDL
MODEL 3
REMARK VINA RESULT:      -8.2      4.697      7.211
REMARK  4 active torsions:
REMARK  status: ('A' for Active; 'I' for Inactive)
REMARK    1  A    between atoms: C2_3  and  N2_8 
REMARK    2  A    between atoms: C3_5  and  N3_15 
REMARK    3  A    between atoms: C7_14  and  S_18 
REMARK    4  A    between atoms: S_18  and  C8_19 
ROOT
ATOM      1  C   UNL d          40.211   5.453  36.134  0.00  0.00     0.064 A 
ATOM      2  C1  UNL d          39.803   4.787  34.947  0.00  0.00     0.054 A 
ATOM      3  C2  UNL d          40.319   3.481  34.692  0.00  0.00     0.154 A 
ATOM      4  N   UNL d          41.205   2.915  35.483  0.00  0.00    -0.047 NA
ATOM      5  C3  UNL d          41.656   3.541  36.594  0.00  0.00     0.700 A 
ATOM      6  N1  UNL d          41.165   4.747  36.995  0.00  0.00    -0.189 N 
ATOM      7  H   UNL d          41.461   5.158  37.891  0.00  0.00     0.184 HD
ATOM      8  C4  UNL d          39.767   6.717  36.483  0.00  0.00     0.031 A 
ATOM      9  C5  UNL d          38.868   7.368  35.639  0.00  0.00     0.004 A 
ATOM     10  C6  UNL d          38.408   6.737  34.461  0.00  0.00     0.020 A 
ATOM     11  C7  UNL d          38.867   5.537  34.111  0.00  0.00     0.021 A 
ENDROOT
BRANCH  11  12
ATOM     12  S   UNL d          38.399   4.815  32.532  0.00  0.00    -0.090 SA
BRANCH  12  13
ATOM     13  C8  UNL d          37.366   6.077  31.812  0.00  0.00     0.005 A 
ATOM     14  C9  UNL d          36.041   6.133  32.151  0.00  0.00     0.019 A 
ATOM     15  C10 UNL d          35.184   7.100  31.564  0.00  0.00     0.001 A 
ATOM     16  C11 UNL d          35.742   7.928  30.551  0.00  0.00     0.000 A 
ATOM     17  C12 UNL d          37.076   7.881  30.204  0.00  0.00     0.001 A 
ATOM     18  C13 UNL d          37.945   6.903  30.803  0.00  0.00     0.019 A 
ENDBRANCH  12  13
ENDBRANCH  11  12
BRANCH   3  19
ATOM     19  N2  UNL d          40.083   2.663  33.650  0.00  0.00    -0.383 N 
ATOM     20  H1  UNL d          39.470   2.971  32.881  0.00  0.00     0.157 HD
ATOM     21  H2  UNL d          40.516   1.729  33.619  0.00  0.00     0.157 HD
ENDBRANCH   3  19
BRANCH   5  22
ATOM     22  N3  UNL d          42.569   3.019  37.421  0.00  0.00    -0.233 N 
ATOM     23  H6  UNL d          43.537   3.369  37.406  0.00  0.00     0.174 HD
ATOM     24  H7  UNL d          42.303   2.266  38.071  0.00  0.00     0.174 HD
ENDBRANCH   5  22
TORSDOF 4
ENDMDL
