@<TRIPOS>MOLECULE
MOL
   57    60     1     0     0
SMALL
No Charge or Current Charge


@<TRIPOS>ATOM
      1 C1          10.6200    -1.7760     0.5670 c2         1 MOL       0.000000
      2 C2           9.8750    -1.0620     1.4040 ce         1 MOL       0.000000
      3 C3          10.1570    -1.1790     2.8710 c          1 MOL       0.000000
      4 C4          11.1780    -2.1810     3.3220 ce         1 MOL       0.000000
      5 C5          11.8810    -2.8660     2.4240 c2         1 MOL       0.000000
      6 C6          12.8740    -3.8580     2.9540 c3         1 MOL       0.000000
      7 C7          12.6180    -5.2220     2.3200 c3         1 MOL       0.000000
      8 C8          12.4450    -5.1590     0.8060 c3         1 MOL       0.000000
      9 C9          11.4640    -4.0890     0.3270 c3         1 MOL       0.000000
     10 C10         11.7360    -2.7120     0.9350 c3         1 MOL       0.000000
     11 C11         11.1520    -4.1140    -1.1690 c3         1 MOL       0.000000
     12 C12         11.0210    -5.4970    -1.7980 c3         1 MOL       0.000000
     13 C13         12.1480    -6.4390    -1.3740 c3         1 MOL       0.000000
     14 C14         12.1690    -6.5110     0.1530 c3         1 MOL       0.000000
     15 C15         13.0000    -7.7420     0.5020 c3         1 MOL       0.000000
     16 C16         12.7280    -8.7000    -0.6530 c3         1 MOL       0.000000
     17 C17         11.8950    -7.9180    -1.6660 c3         1 MOL       0.000000
     18 C18         13.4690    -5.9920    -1.9960 c3         1 MOL       0.000000
     19 C19         13.0080    -2.0470     0.4160 c3         1 MOL       0.000000
     20 C20         12.1240   -10.0060    -0.1490 c3         1 MOL       0.000000
     21 F1          10.2690    -4.4770     0.8560 f          1 MOL       0.000000
     22 O1           9.5650    -0.4690     3.6800 o          1 MOL       0.000000
     23 C21         12.1740    -8.3220    -3.1060 c          1 MOL       0.000000
     24 O2          13.2980    -8.6880    -3.4420 o          1 MOL       0.000000
     25 C22         11.1100    -8.2790    -4.1890 c3         1 MOL       0.000000
     26 O3          11.1570    -9.4700    -4.9620 oh         1 MOL       0.000000
     27 H1          11.8820   -10.0960    -4.5840 ho         1 MOL       0.000000
     28 O4          10.5340    -8.2330    -1.4110 oh         1 MOL       0.000000
     29 H2          10.0210    -7.3720    -1.1730 ho         1 MOL       0.000000
     30 O5          12.1800    -3.4460    -1.8860 oh         1 MOL       0.000000
     31 H3          13.0110    -4.0520    -1.9420 ho         1 MOL       0.000000
     32 H4          10.4110    -1.6770    -0.4390 ha         1 MOL       0.000000
     33 H5           9.1250    -0.4460     1.0540 ha         1 MOL       0.000000
     34 H6          11.3350    -2.3390     4.3300 ha         1 MOL       0.000000
     35 H7          13.8650    -3.5340     2.7140 hc         1 MOL       0.000000
     36 H8          12.7710    -3.9330     4.0160 hc         1 MOL       0.000000
     37 H9          13.4480    -5.8610     2.5410 hc         1 MOL       0.000000
     38 H10         11.7030    -5.5960     2.7290 hc         1 MOL       0.000000
     39 H11         13.4100    -4.8500     0.4640 hc         1 MOL       0.000000
     40 H12         10.1970    -3.6370    -1.2390 h1         1 MOL       0.000000
     41 H13         10.0860    -5.9230    -1.4990 hc         1 MOL       0.000000
     42 H14         11.0760    -5.3790    -2.8600 hc         1 MOL       0.000000
     43 H15         11.2170    -6.6790     0.6110 hc         1 MOL       0.000000
     44 H16         14.0400    -7.4970     0.5580 hc         1 MOL       0.000000
     45 H17         12.7460    -8.1580     1.4550 hc         1 MOL       0.000000
     46 H18         13.6170    -9.0300    -1.1480 hc         1 MOL       0.000000
     47 H19         13.3710    -5.9680    -3.0610 hc         1 MOL       0.000000
     48 H20         14.2420    -6.6800    -1.7240 hc         1 MOL       0.000000
     49 H21         13.7190    -5.0150    -1.6380 hc         1 MOL       0.000000
     50 H22         12.9380    -1.9220    -0.6440 hc         1 MOL       0.000000
     51 H23         13.8520    -2.6620     0.6480 hc         1 MOL       0.000000
     52 H24         13.1260    -1.0910     0.8810 hc         1 MOL       0.000000
     53 H25         11.2130    -9.8000     0.3720 hc         1 MOL       0.000000
     54 H26         12.8130   -10.4850     0.5140 hc         1 MOL       0.000000
     55 H27         11.9220   -10.6490    -0.9800 hc         1 MOL       0.000000
     56 H28         10.1450    -8.1890    -3.7350 h1         1 MOL       0.000000
     57 H29         11.2900    -7.4390    -4.8260 h1         1 MOL       0.000000
@<TRIPOS>BOND
     1     1    10 1   
     2     1     2 2   
     3     1    32 1   
     4     2     3 1   
     5     2    33 1   
     6     3     4 1   
     7     3    22 2   
     8     4    34 1   
     9     5     6 1   
    10     5     4 2   
    11     6    35 1   
    12     6    36 1   
    13     7     6 1   
    14     7    37 1   
    15     7    38 1   
    16     8    14 1   
    17     8     7 1   
    18     8    39 1   
    19     9    11 1   
    20     9     8 1   
    21     9    21 1   
    22    10     9 1   
    23    10     5 1   
    24    11    40 1   
    25    12    13 1   
    26    12    11 1   
    27    12    41 1   
    28    12    42 1   
    29    13    17 1   
    30    14    13 1   
    31    14    15 1   
    32    14    43 1   
    33    15    44 1   
    34    15    45 1   
    35    16    17 1   
    36    16    20 1   
    37    16    15 1   
    38    16    46 1   
    39    17    23 1   
    40    17    28 1   
    41    18    13 1   
    42    18    47 1   
    43    18    48 1   
    44    18    49 1   
    45    19    10 1   
    46    19    50 1   
    47    19    51 1   
    48    19    52 1   
    49    20    53 1   
    50    20    54 1   
    51    20    55 1   
    52    24    23 2   
    53    25    23 1   
    54    25    56 1   
    55    25    57 1   
    56    26    27 1   
    57    26    25 1   
    58    28    29 1   
    59    30    11 1   
    60    31    30 1   
@<TRIPOS>SUBSTRUCTURE
     1 MOL         1 TEMP              0 ****  ****    0 ROOT
