@<TRIPOS>MOLECULE
LIGAND
   31    30     1     0     0
SMALL
No Charge or Current Charge


@<TRIPOS>ATOM
      1 O           56.4220     4.6030     8.5350 oh         1 UNL      -0.394400
      2 H           57.3430     4.2260     8.2690 ho         1 UNL       0.209400
      3 C           54.2700     4.0680     7.3520 c3         1 UNL       0.022700
      4 C1          55.4240     3.6040     8.3380 c3         1 UNL       0.052100
      5 H1          55.0080     3.3320     9.3240 h1         1 UNL       0.056300
      6 H2          55.9000     2.6940     7.9310 h1         1 UNL       0.056300
      7 C2          54.9570     4.6000     6.0220 c3         1 UNL      -0.054900
      8 H3          54.1960     4.9030     5.2840 hc         1 UNL       0.023700
      9 H4          55.6030     5.4720     6.2050 hc         1 UNL       0.023700
     10 H5          55.5750     3.8180     5.5530 hc         1 UNL       0.023700
     11 C3          53.4530     2.8270     7.1020 c3         1 UNL      -0.054900
     12 H6          52.6270     3.0080     6.3920 hc         1 UNL       0.023700
     13 H7          54.0670     2.0170     6.6740 hc         1 UNL       0.023700
     14 H8          53.0000     2.4500     8.0340 hc         1 UNL       0.023700
     15 C4          53.3530     5.3320     7.9900 c3         1 UNL       0.138000
     16 H9          53.0650     5.0800     9.0220 h1         1 UNL       0.069600
     17 O1          54.1660     6.5480     8.0040 oh         1 UNL      -0.382000
     18 H10         55.1640     6.2940     7.9900 ho         1 UNL       0.210500
     19 C5          52.0560     5.6780     7.1210 c          1 UNL       0.242300
     20 O2          52.1710     6.5550     6.1200 o          1 UNL      -0.273000
     21 N           50.9080     5.0760     7.3850 n          1 UNL      -0.312600
     22 H11         50.8600     4.4550     8.2050 hn         1 UNL       0.148800
     23 C6          49.6790     5.2500     6.5560 c3         1 UNL       0.021900
     24 H12         49.3160     4.2530     6.2530 h1         1 UNL       0.046700
     25 H13         49.9610     5.7660     5.6290 h1         1 UNL       0.046700
     26 C7          48.5740     6.0540     7.3050 c3         1 UNL       0.064700
     27 H14         48.1490     5.4150     8.0950 hc         1 UNL       0.039400
     28 H15         47.7830     6.3070     6.5830 hc         1 UNL       0.039400
     29 C8          49.1200     7.3540     7.9370 c          1 UNL       0.357500
     30 O3          49.6170     7.3980     9.1700 o          1 UNL      -0.246300
     31 O4          49.0410     8.4140     7.1470 o          1 UNL      -0.246300
@<TRIPOS>BOND
     1     1     4 1   
     2     1     2 1   
     3     3     4 1   
     4     3     7 1   
     5     3    11 1   
     6     3    15 1   
     7     4     5 1   
     8     4     6 1   
     9     7     8 1   
    10     7     9 1   
    11     7    10 1   
    12    11    12 1   
    13    11    13 1   
    14    11    14 1   
    15    15    17 1   
    16    15    19 1   
    17    15    16 1   
    18    17    18 1   
    19    19    20 2   
    20    19    21 1   
    21    21    23 1   
    22    21    22 1   
    23    23    26 1   
    24    23    24 1   
    25    23    25 1   
    26    26    29 1   
    27    26    27 1   
    28    26    28 1   
    29    29    30 1   
    30    29    31 1   
@<TRIPOS>SUBSTRUCTURE
     1 UNL         1 TEMP              0 ****  ****    0 ROOT
