@<TRIPOS>MOLECULE
MOL
   35    36     1     0     0
SMALL
No Charge or Current Charge


@<TRIPOS>ATOM
      1 C1          -3.8510    42.7220    40.7770 ca         1 MOL       0.000000
      2 N1          -2.9080    42.3490    41.7670 nb         1 MOL       0.000000
      3 C2          -2.6330    43.2880    42.8070 ca         1 MOL       0.000000
      4 C3          -1.6880    42.9060    43.8060 c3         1 MOL       0.000000
      5 N2          -3.2760    44.5480    42.8650 nb         1 MOL       0.000000
      6 C4          -4.2250    44.8750    41.8370 ca         1 MOL       0.000000
      7 N3          -4.8630    46.0610    41.8670 n          1 MOL       0.000000
      8 H1          -4.6320    46.7050    42.6360 hn         1 MOL       0.000000
      9 C5          -5.7770    46.4680    40.9690 c          1 MOL       0.000000
     10 O1          -6.2120    45.8720    39.9650 o          1 MOL       0.000000
     11 N4          -6.2180    47.6860    41.3550 n          1 MOL       0.000000
     12 N5          -4.4780    43.9420    40.8190 nb         1 MOL       0.000000
     13 S1          -7.3950    48.5180    40.5370 sy         1 MOL       0.000000
     14 O2          -8.5920    47.9030    40.0280 o          1 MOL       0.000000
     15 O3          -6.3360    48.8990    39.6190 o          1 MOL       0.000000
     16 C6          -7.5370    50.0690    41.3570 ca         1 MOL       0.000000
     17 C7          -6.5010    50.2000    42.3490 ca         1 MOL       0.000000
     18 C8          -6.4040    51.4220    43.1680 ca         1 MOL       0.000000
     19 C9          -7.3760    52.5130    42.9570 ca         1 MOL       0.000000
     20 C10         -8.3890    52.3640    41.9780 ca         1 MOL       0.000000
     21 C11         -8.4900    51.1680    41.1750 ca         1 MOL       0.000000
     22 Cl1         -9.7430    51.0820    40.0200 cl         1 MOL       0.000000
     23 O4          -4.1360    41.7880    39.7200 os         1 MOL       0.000000
     24 C12         -5.3930    41.8030    39.0880 c3         1 MOL       0.000000
     25 H2          -1.3150    41.9270    43.5890 hc         1 MOL       0.000000
     26 H3          -2.1640    42.9020    44.7640 hc         1 MOL       0.000000
     27 H4          -0.8760    43.6030    43.8140 hc         1 MOL       0.000000
     28 H5          -5.8230    48.0970    42.1570 hn         1 MOL       0.000000
     29 H6          -5.8230    49.4340    42.4870 ha         1 MOL       0.000000
     30 H7          -5.6640    51.5140    43.8820 ha         1 MOL       0.000000
     31 H8          -7.3180    53.3770    43.5180 ha         1 MOL       0.000000
     32 H9          -9.0690    53.1270    41.8360 ha         1 MOL       0.000000
     33 H10         -5.4220    41.0450    38.3340 h1         1 MOL       0.000000
     34 H11         -5.5540    42.7600    38.6380 h1         1 MOL       0.000000
     35 H12         -6.1580    41.6160    39.8120 h1         1 MOL       0.000000
@<TRIPOS>BOND
     1     1    12 ar  
     2     1     2 ar  
     3     2     3 ar  
     4     3     5 ar  
     5     3     4 1   
     6     4    25 1   
     7     4    26 1   
     8     4    27 1   
     9     6     7 1   
    10     6     5 ar  
    11     7     8 1   
    12     9    11 1   
    13     9     7 1   
    14    10     9 2   
    15    11    28 1   
    16    12     6 ar  
    17    13    11 1   
    18    13    16 1   
    19    14    13 2   
    20    15    13 2   
    21    16    17 ar  
    22    17    18 ar  
    23    17    29 1   
    24    18    30 1   
    25    19    18 ar  
    26    19    31 1   
    27    20    19 ar  
    28    20    32 1   
    29    21    16 ar  
    30    21    20 ar  
    31    22    21 1   
    32    23     1 1   
    33    24    23 1   
    34    24    33 1   
    35    24    34 1   
    36    24    35 1   
@<TRIPOS>SUBSTRUCTURE
     1 MOL         1 TEMP              0 ****  ****    0 ROOT
