@<TRIPOS>MOLECULE
LIGAND
   31    31     1     0     0
SMALL
No Charge or Current Charge


@<TRIPOS>ATOM
      1 C           84.1890    77.2130    97.3480 c3         1 UNL      -0.035700
      2 C1          82.8540    76.3810    97.0320 c3         1 UNL       0.014700
      3 N           82.6620    75.5160    98.2090 n          1 UNL      -0.302800
      4 C2          84.0340    75.2340    98.6920 c3         1 UNL       0.014700
      5 C3          84.6320    76.6600    98.7760 c3         1 UNL      -0.035700
      6 C4          81.8000    74.3630    97.9530 c          1 UNL       0.201300
      7 C5          80.4200    74.3850    97.4480 c3         1 UNL      -0.002500
      8 C6          79.2960    74.2300    98.4320 c3         1 UNL      -0.051500
      9 C7          79.2210    75.2820    99.4580 c3         1 UNL      -0.063700
     10 O           82.3220    73.1150    98.2010 o          1 UNL      -0.277400
     11 N1          80.2150    73.3530    96.3790 n4         1 UNL       0.385800
     12 C8          77.8050    74.2860    97.6340 c3         1 UNL      -0.063700
     13 H           84.0450    78.3050    97.3260 hc         1 UNL       0.028100
     14 H1          84.9690    77.0020    96.5960 hc         1 UNL       0.028100
     15 H2          83.0070    75.7670    96.1280 h1         1 UNL       0.046400
     16 H3          81.9650    77.0070    96.8900 h1         1 UNL       0.046400
     17 H4          84.5940    74.6250    97.9560 h1         1 UNL       0.046400
     18 H5          83.9740    74.6880    99.6420 h1         1 UNL       0.046400
     19 H6          84.1250    77.2290    99.5730 hc         1 UNL       0.028100
     20 H7          85.7130    76.6810    98.9680 hc         1 UNL       0.028100
     21 H8          80.2280    75.3410    96.9340 hx         1 UNL       0.018000
     22 H9          79.3620    73.2510    98.9420 hc         1 UNL       0.028400
     23 H10         78.3780    75.1030   100.1490 hc         1 UNL       0.023200
     24 H11         80.1250    75.3450   100.0900 hc         1 UNL       0.023200
     25 H12         79.0730    76.2820    99.0140 hc         1 UNL       0.023200
     26 H13         79.2750    73.3760    96.0080 hn         1 UNL      -0.089000
     27 H14         80.8440    73.4560    95.5930 hn         1 UNL      -0.089000
     28 H15         80.3720    72.4210    96.7480 hn         1 UNL      -0.089000
     29 H16         76.9910    74.2610    98.3790 hc         1 UNL       0.023200
     30 H17         77.7190    75.2340    97.0770 hc         1 UNL       0.023200
     31 H18         77.6480    73.4470    96.9410 hc         1 UNL       0.023200
@<TRIPOS>BOND
     1     1     2 1   
     2     1     5 1   
     3     2     3 1   
     4     3     4 1   
     5     3     6 1   
     6     4     5 1   
     7     6     7 1   
     8     6    10 2   
     9     7     8 1   
    10     7    11 1   
    11     8     9 1   
    12     8    12 1   
    13     1    13 1   
    14     1    14 1   
    15     2    15 1   
    16     2    16 1   
    17     4    17 1   
    18     4    18 1   
    19     5    19 1   
    20     5    20 1   
    21     7    21 1   
    22     8    22 1   
    23     9    23 1   
    24     9    24 1   
    25     9    25 1   
    26    11    26 1   
    27    11    27 1   
    28    11    28 1   
    29    12    29 1   
    30    12    30 1   
    31    12    31 1   
@<TRIPOS>SUBSTRUCTURE
     1 UNL         1 TEMP              0 ****  ****    0 ROOT
