MODEL 1
REMARK VINA RESULT:      -7.4      0.000      0.000
REMARK  6 active torsions:
REMARK  status: ('A' for Active; 'I' for Inactive)
REMARK    1  A    between atoms: CG_2  and  CB_4 
REMARK    2  A    between atoms: CB_4  and  CA_5 
REMARK    3  A    between atoms: CA_5  and  C_6 
REMARK    4  A    between atoms: CA_5  and  N_9 
REMARK       I    between atoms: N_9  and  C_10 
REMARK    5  A    between atoms: C_10  and  C1_12 
REMARK    6  A    between atoms: C1_12  and  C2_13 
ROOT
ATOM      1  N   ASP d          67.608  20.489 192.028  0.00  0.00    -0.267 N 
ATOM      2  C   UNK d          67.274  21.420 191.032  0.00  0.00     0.240 C 
ATOM      3  O   UNK d          66.260  22.091 191.096  0.00  0.00    -0.272 OA
ATOM      4  H   ASP d          68.505  19.988 191.956  0.00  0.00     0.190 HD
ENDROOT
BRANCH   2   5
ATOM      5  C1  UNK d          68.287  21.602 189.905  0.00  0.00     0.145 C 
BRANCH   5   6
ATOM      6  C2  UNK d          68.696  23.075 189.831  0.00  0.00    -0.021 A 
ATOM      7  C3  UNK d          69.524  23.752 190.750  0.00  0.00     0.097 A 
ATOM      8  N   UNK d          69.650  25.058 190.280  0.00  0.00    -0.365 N 
ATOM      9  C6  UNK d          68.951  25.189 189.089  0.00  0.00     0.042 A 
ATOM     10  H3  UNK d          70.180  25.809 190.745  0.00  0.00     0.165 HD
ATOM     11  C4  UNK d          68.374  23.957 188.775  0.00  0.00    -0.001 A 
ATOM     12  C7  UNK d          68.799  26.270 188.216  0.00  0.00     0.030 A 
ATOM     13  C5  UNK d          67.665  23.779 187.588  0.00  0.00     0.014 A 
ATOM     14  C9  UNK d          67.517  24.876 186.747  0.00  0.00     0.001 A 
ATOM     15  C8  UNK d          68.079  26.108 187.046  0.00  0.00     0.002 A 
ENDBRANCH   5   6
ENDBRANCH   2   5
BRANCH   1  16
ATOM     16 CA   ASP d          66.729  20.201 193.168  0.00  0.00     0.000 Ca
ATOM     17  HA  ASP d          65.855  20.869 193.142  0.00  0.00     0.000 HD
BRANCH  16  18
ATOM     18  CB  ASP d          66.264  18.705 193.101  0.00  0.00     0.123 C 
BRANCH  18  19
ATOM     19  CG  ASP d          64.860  18.658 192.464  0.00  0.00     0.173 C 
ATOM     20  OD1 ASP d          63.834  18.227 193.207  0.00  0.00    -0.648 OA
ATOM     21  OD2 ASP d          64.701  19.079 191.239  0.00  0.00    -0.648 OA
ENDBRANCH  18  19
ENDBRANCH  16  18
BRANCH  16  22
ATOM     22  C   ASP d          67.549  20.485 194.424  0.00  0.00     0.279 C 
ATOM     23  O   ASP d          67.298  19.781 195.543  0.00  0.00    -0.639 OA
ATOM     24  OXT ASP d          68.494  21.328 194.360  0.00  0.00    -0.639 OA
ENDBRANCH  16  22
ENDBRANCH   1  16
TORSDOF 6
ENDMDL
MODEL 2
REMARK VINA RESULT:      -7.0      1.111      1.726
REMARK  6 active torsions:
REMARK  status: ('A' for Active; 'I' for Inactive)
REMARK    1  A    between atoms: CG_2  and  CB_4 
REMARK    2  A    between atoms: CB_4  and  CA_5 
REMARK    3  A    between atoms: CA_5  and  C_6 
REMARK    4  A    between atoms: CA_5  and  N_9 
REMARK       I    between atoms: N_9  and  C_10 
REMARK    5  A    between atoms: C_10  and  C1_12 
REMARK    6  A    between atoms: C1_12  and  C2_13 
ROOT
ATOM      1  N   ASP d          67.785  20.413 192.079  0.00  0.00    -0.267 N 
ATOM      2  C   UNK d          67.540  21.380 191.092  0.00  0.00     0.240 C 
ATOM      3  O   UNK d          66.564  22.107 191.136  0.00  0.00    -0.272 OA
ATOM      4  H   ASP d          68.654  19.862 192.027  0.00  0.00     0.190 HD
ENDROOT
BRANCH   2   5
ATOM      5  C1  UNK d          68.599  21.524 190.003  0.00  0.00     0.145 C 
BRANCH   5   6
ATOM      6  C2  UNK d          68.181  22.637 189.040  0.00  0.00    -0.021 A 
ATOM      7  C3  UNK d          67.056  22.618 188.190  0.00  0.00     0.097 A 
ATOM      8  N   UNK d          67.048  23.838 187.517  0.00  0.00    -0.365 N 
ATOM      9  C6  UNK d          68.115  24.611 187.952  0.00  0.00     0.042 A 
ATOM     10  H3  UNK d          66.357  24.122 186.807  0.00  0.00     0.165 HD
ATOM     11  C4  UNK d          68.816  23.894 188.923  0.00  0.00    -0.001 A 
ATOM     12  C7  UNK d          68.518  25.908 187.619  0.00  0.00     0.030 A 
ATOM     13  C5  UNK d          69.904  24.460 189.587  0.00  0.00     0.014 A 
ATOM     14  C9  UNK d          70.292  25.744 189.223  0.00  0.00     0.001 A 
ATOM     15  C8  UNK d          69.609  26.469 188.257  0.00  0.00     0.002 A 
ENDBRANCH   5   6
ENDBRANCH   2   5
BRANCH   1  16
ATOM     16 CA   ASP d          66.853  20.155 193.183  0.00  0.00     0.000 Ca
ATOM     17  HA  ASP d          65.989  20.833 193.106  0.00  0.00     0.000 HD
BRANCH  16  18
ATOM     18  CB  ASP d          66.371  18.664 193.119  0.00  0.00     0.123 C 
BRANCH  18  19
ATOM     19  CG  ASP d          64.965  18.631 192.488  0.00  0.00     0.173 C 
ATOM     20  OD1 ASP d          63.994  17.963 193.121  0.00  0.00    -0.648 OA
ATOM     21  OD2 ASP d          64.747  19.288 191.380  0.00  0.00    -0.648 OA
ENDBRANCH  18  19
ENDBRANCH  16  18
BRANCH  16  22
ATOM     22  C   ASP d          67.619  20.450 194.469  0.00  0.00     0.279 C 
ATOM     23  O   ASP d          67.326  19.750 195.581  0.00  0.00    -0.639 OA
ATOM     24  OXT ASP d          68.561  21.298 194.440  0.00  0.00    -0.639 OA
ENDBRANCH  16  22
ENDBRANCH   1  16
TORSDOF 6
ENDMDL
MODEL 3
REMARK VINA RESULT:      -6.8      3.301      7.040
REMARK  6 active torsions:
REMARK  status: ('A' for Active; 'I' for Inactive)
REMARK    1  A    between atoms: CG_2  and  CB_4 
REMARK    2  A    between atoms: CB_4  and  CA_5 
REMARK    3  A    between atoms: CA_5  and  C_6 
REMARK    4  A    between atoms: CA_5  and  N_9 
REMARK       I    between atoms: N_9  and  C_10 
REMARK    5  A    between atoms: C_10  and  C1_12 
REMARK    6  A    between atoms: C1_12  and  C2_13 
ROOT
ATOM      1  N   ASP d          67.976  23.700 189.751  0.00  0.00    -0.267 N 
ATOM      2  C   UNK d          67.165  22.596 189.444  0.00  0.00     0.240 C 
ATOM      3  O   UNK d          67.355  21.918 188.451  0.00  0.00    -0.272 OA
ATOM      4  H   ASP d          67.810  24.206 190.633  0.00  0.00     0.190 HD
ENDROOT
BRANCH   2   5
ATOM      5  C1  UNK d          66.082  22.245 190.460  0.00  0.00     0.145 C 
BRANCH   5   6
ATOM      6  C2  UNK d          66.673  21.313 191.521  0.00  0.00    -0.021 A 
ATOM      7  C3  UNK d          67.890  21.503 192.207  0.00  0.00     0.097 A 
ATOM      8  N   UNK d          68.018  20.435 193.091  0.00  0.00    -0.365 N 
ATOM      9  C6  UNK d          66.903  19.616 192.987  0.00  0.00     0.042 A 
ATOM     10  H3  UNK d          68.816  20.277 193.723  0.00  0.00     0.165 HD
ATOM     11  C4  UNK d          66.038  20.160 192.037  0.00  0.00    -0.001 A 
ATOM     12  C7  UNK d          66.537  18.455 193.675  0.00  0.00     0.030 A 
ATOM     13  C5  UNK d          64.798  19.577 191.776  0.00  0.00     0.014 A 
ATOM     14  C9  UNK d          64.469  18.415 192.464  0.00  0.00     0.001 A 
ATOM     15  C8  UNK d          65.319  17.857 193.408  0.00  0.00     0.002 A 
ENDBRANCH   5   6
ENDBRANCH   2   5
BRANCH   1  16
ATOM     16 CA   ASP d          69.052  24.162 188.866  0.00  0.00     0.000 Ca
ATOM     17  HA  ASP d          68.999  23.626 187.906  0.00  0.00     0.000 HD
BRANCH  16  18
ATOM     18  CB  ASP d          68.903  25.704 188.628  0.00  0.00     0.123 C 
BRANCH  18  19
ATOM     19  CG  ASP d          68.128  25.924 187.313  0.00  0.00     0.173 C 
ATOM     20  OD1 ASP d          67.698  24.852 186.636  0.00  0.00    -0.648 OA
ATOM     21  OD2 ASP d          67.875  27.142 186.917  0.00  0.00    -0.648 OA
ENDBRANCH  18  19
ENDBRANCH  16  18
BRANCH  16  22
ATOM     22  C   ASP d          70.362  23.820 189.569  0.00  0.00     0.279 C 
ATOM     23  O   ASP d          70.694  22.527 189.743  0.00  0.00    -0.639 OA
ATOM     24  OXT ASP d          71.140  24.762 189.908  0.00  0.00    -0.639 OA
ENDBRANCH  16  22
ENDBRANCH   1  16
TORSDOF 6
ENDMDL
