@<TRIPOS>MOLECULE
LIGAND
   69    73     1     0     0
SMALL
No Charge or Current Charge


@<TRIPOS>ATOM
      1 C           32.6960    24.7000    47.5410 ca         1 UNL      -0.043000
      2 H           33.6460    25.1360    47.8510 ha         1 UNL       0.063300
      3 C1          31.8180    25.4090    46.7190 ca         1 UNL      -0.049700
      4 H1          32.0760    26.4080    46.3670 ha         1 UNL       0.062500
      5 C2          30.6070    24.8220    46.3550 cp         1 UNL       0.018600
      6 C3          30.2890    23.5400    46.7930 ca         1 UNL       0.036700
      7 H2          29.3450    23.0780    46.5040 h4         1 UNL       0.083600
      8 N           31.1560    22.8770    47.5750 nb         1 UNL      -0.262600
      9 C4          32.3300    23.4240    47.9550 ca         1 UNL       0.027600
     10 H3          33.0030    22.8560    48.5970 h4         1 UNL       0.082900
     11 C5          29.6570    25.5420    45.4790 cp         1 UNL       0.077500
     12 C6          29.9720    26.7830    44.9260 ca         1 UNL      -0.017400
     13 H4          30.9250    27.2660    45.1400 ha         1 UNL       0.065400
     14 C7          29.0340    27.3880    44.0930 ca         1 UNL       0.033200
     15 H5          29.2570    28.3520    43.6360 h4         1 UNL       0.083100
     16 N1          27.8540    26.7890    43.8490 nb         1 UNL      -0.222600
     17 C8          27.5660    25.5940    44.4210 ca         1 UNL       0.220000
     18 N2          28.4650    24.9750    45.2160 nb         1 UNL      -0.214200
     19 N3          26.4040    24.9540    44.2010 nh         1 UNL      -0.283300
     20 H6          26.3120    23.9850    44.5390 hn         1 UNL       0.155000
     21 C9          25.3470    25.5110    43.5600 ca         1 UNL       0.038300
     22 C10         24.2990    26.0650    44.2940 ca         1 UNL      -0.029100
     23 C11         23.2070    26.6100    43.6280 ca         1 UNL      -0.055300
     24 H7          22.3890    27.0470    44.2000 ha         1 UNL       0.062100
     25 C12         23.1490    26.6030    42.2330 ca         1 UNL      -0.040100
     26 H8          22.2850    27.0270    41.7210 ha         1 UNL       0.063600
     27 C13         24.1950    26.0540    41.4950 ca         1 UNL       0.035400
     28 C14         25.2830    25.4900    42.1650 ca         1 UNL      -0.019000
     29 H9          26.0890    25.0290    41.5940 ha         1 UNL       0.065500
     30 N4          24.0610    26.0500    40.0970 n          1 UNL      -0.281400
     31 H10         23.1770    26.4060    39.7050 hn         1 UNL       0.155100
     32 C15         24.9820    25.6240    39.2380 c          1 UNL       0.248300
     33 C16         24.6520    25.6310    37.7790 ca         1 UNL       0.037000
     34 C17         25.4430    24.8950    36.8960 ca         1 UNL      -0.049300
     35 H11         26.2940    24.3240    37.2660 ha         1 UNL       0.062500
     36 C18         25.1350    24.8970    35.5390 ca         1 UNL      -0.056600
     37 H12         25.7470    24.3290    34.8380 ha         1 UNL       0.062100
     38 C19         24.0400    25.6290    35.0810 ca         1 UNL      -0.033300
     39 C20         23.2420    26.3570    35.9610 ca         1 UNL      -0.056600
     40 H13         22.3870    26.9240    35.5930 ha         1 UNL       0.062100
     41 C21         23.5530    26.3490    37.3180 ca         1 UNL      -0.049300
     42 H14         22.9340    26.9070    38.0210 ha         1 UNL       0.062500
     43 C22         23.7080    25.6150    33.6100 c3         1 UNL       0.023900
     44 H15         22.7290    25.1100    33.5030 h1         1 UNL       0.047600
     45 H16         24.4390    24.9840    33.0710 h1         1 UNL       0.047600
     46 N5          23.6120    26.9460    33.0270 n3         1 UNL      -0.301700
     47 C23         24.7780    27.8090    33.1870 c3         1 UNL      -0.015700
     48 H17         25.6520    27.4410    32.6150 h1         1 UNL       0.040800
     49 H18         25.0860    27.8390    34.2430 h1         1 UNL       0.040800
     50 C24         24.4070    29.2250    32.7690 c3         1 UNL      -0.077800
     51 H19         25.2960    29.8700    32.7670 hx         1 UNL       0.007100
     52 H20         23.6570    29.6610    33.4450 hx         1 UNL       0.007100
     53 N6          23.8580    29.1530    31.4220 n4         1 UNL       0.379500
     54 H21         24.5900    28.6650    30.9200 hn         1 UNL      -0.082100
     55 C25         23.8300    30.4370    30.7290 c3         1 UNL      -0.103100
     56 H22         23.5850    30.2800    29.6710 hx         1 UNL       0.002300
     57 H23         23.0730    31.0860    31.1860 hx         1 UNL       0.002300
     58 H24         24.8150    30.9150    30.8010 hx         1 UNL       0.002300
     59 C26         22.6960    28.3020    31.1910 c3         1 UNL      -0.077800
     60 H25         22.4720    28.2800    30.1160 hx         1 UNL       0.007100
     61 H26         21.8370    28.7530    31.7110 hx         1 UNL       0.007100
     62 C27         22.9660    26.9000    31.7180 c3         1 UNL      -0.015700
     63 H27         21.9990    26.3780    31.8020 h1         1 UNL       0.040800
     64 H28         23.5750    26.3250    30.9930 h1         1 UNL       0.040800
     65 O           26.0670    25.2150    39.5910 o          1 UNL      -0.269900
     66 C28         24.3250    26.0840    45.8060 c3         1 UNL      -0.038000
     67 H29         25.1910    26.6530    46.1830 hc         1 UNL       0.027800
     68 H30         23.4170    26.5500    46.2160 hc         1 UNL       0.027800
     69 H31         24.3940    25.0650    46.2200 hc         1 UNL       0.027800
@<TRIPOS>BOND
     1     1     3 ar  
     2     1     9 ar  
     3     1     2 1   
     4     3     5 ar  
     5     3     4 1   
     6     5     6 ar  
     7     5    11 1   
     8     6     8 ar  
     9     6     7 1   
    10     8     9 ar  
    11     9    10 1   
    12    11    12 ar  
    13    11    18 ar  
    14    12    14 ar  
    15    12    13 1   
    16    14    16 ar  
    17    14    15 1   
    18    16    17 ar  
    19    17    18 ar  
    20    17    19 1   
    21    19    21 1   
    22    19    20 1   
    23    21    22 ar  
    24    21    28 ar  
    25    22    23 ar  
    26    22    66 1   
    27    23    25 ar  
    28    23    24 1   
    29    25    27 ar  
    30    25    26 1   
    31    27    28 ar  
    32    27    30 1   
    33    28    29 1   
    34    30    32 1   
    35    30    31 1   
    36    32    33 1   
    37    32    65 2   
    38    33    34 ar  
    39    33    41 ar  
    40    34    36 ar  
    41    34    35 1   
    42    36    38 ar  
    43    36    37 1   
    44    38    39 ar  
    45    38    43 1   
    46    39    41 ar  
    47    39    40 1   
    48    41    42 1   
    49    43    46 1   
    50    43    44 1   
    51    43    45 1   
    52    46    47 1   
    53    46    62 1   
    54    47    50 1   
    55    47    48 1   
    56    47    49 1   
    57    50    53 1   
    58    50    51 1   
    59    50    52 1   
    60    53    55 1   
    61    53    59 1   
    62    53    54 1   
    63    55    56 1   
    64    55    57 1   
    65    55    58 1   
    66    59    62 1   
    67    59    60 1   
    68    59    61 1   
    69    62    63 1   
    70    62    64 1   
    71    66    67 1   
    72    66    68 1   
    73    66    69 1   
@<TRIPOS>SUBSTRUCTURE
     1 UNL         1 TEMP              0 ****  ****    0 ROOT
