@<TRIPOS>MOLECULE
LIGAND
   23    24     1     0     0
SMALL
No Charge or Current Charge


@<TRIPOS>ATOM
      1 C           -8.3500     8.3090    19.9180 c3         1 UNL       0.051200
      2 N           -9.1070     9.0370    19.0730 nh         1 UNL      -0.321800
      3 C1          -9.1830     8.8080    17.7070 cc         1 UNL       0.153500
      4 N1          -9.9130     9.5310    16.9810 nc         1 UNL      -0.199100
      5 C2         -10.0420     9.3670    15.6090 cd         1 UNL       0.194800
      6 N2         -10.7600    10.0850    14.9250 nh         1 UNL      -0.328900
      7 H          -10.8270     9.9280    13.9090 hn         1 UNL       0.145100
      8 H3         -11.2970    10.8450    15.3650 hn         1 UNL       0.145100
      9 C3          -8.4450     7.7730    17.1430 cd         1 UNL       0.167700
     10 C4          -8.5060     7.5200    15.7530 c          1 UNL       0.280000
     11 N3          -9.2940     8.3350    15.1160 n          1 UNL      -0.293500
     12 H4          -9.3640     8.1820    14.1000 hn         1 UNL       0.171600
     13 O           -7.8600     6.6070    15.2360 o          1 UNL      -0.265400
     14 N4          -7.6100     6.9510    18.0030 nf         1 UNL      -0.243800
     15 CA          -7.4910     7.1060    19.2760 c2         1 UNL       0.062000
     16 C5          -6.6900     6.3440    20.2100 c3         1 UNL       0.083800
     17 H1          -7.3350     5.7480    20.8790 h1         1 UNL       0.062000
     18 H2          -6.0730     7.0080    20.8330 h1         1 UNL       0.062000
     19 O1          -5.7980     5.4760    19.5280 oh         1 UNL      -0.389200
     20 H5          -6.1760     5.2590    18.5950 ho         1 UNL       0.209900
     21 H6          -8.9630     7.8400    20.7140 h1         1 UNL       0.052400
     22 H7          -7.6140     8.9430    20.4530 h1         1 UNL       0.052400
     23 H8          -9.6630     9.8100    19.4650 hn         1 UNL       0.147900
@<TRIPOS>BOND
     1     1     2 1   
     2     1    15 1   
     3     2     3 1   
     4     3     4 1   
     5     3     9 2   
     6     4     5 2   
     7     5     6 1   
     8     5    11 1   
     9     6     7 1   
    10     6     8 1   
    11     9    10 1   
    12     9    14 1   
    13    10    11 1   
    14    10    13 2   
    15    11    12 1   
    16    14    15 2   
    17    15    16 1   
    18    16    19 1   
    19    16    17 1   
    20    16    18 1   
    21    19    20 1   
    22     1    21 1   
    23     1    22 1   
    24     2    23 1   
@<TRIPOS>SUBSTRUCTURE
     1 UNL         1 TEMP              0 ****  ****    0 ROOT
