@<TRIPOS>MOLECULE
LIGAND
   24    24     1     0     0
SMALL
No Charge or Current Charge


@<TRIPOS>ATOM
      1 N           30.6770    -3.3700    50.5160 n4         1 TYR       0.387300
      2 H1          30.3440    -2.6000    51.0610 hn         1 TYR      -0.088900
      3 H2          29.9160    -4.0160    50.3510 hn         1 TYR      -0.088900
      4 H3          31.3060    -3.9680    51.0500 hn         1 TYR      -0.088900
      5 CA          31.3780    -3.1310    49.2550 c3         1 TYR       0.024500
      6 HA          30.6550    -2.7420    48.5230 hx         1 TYR       0.020100
      7 C           31.9670    -4.4050    48.6940 c          1 TYR       0.342300
      8 O           32.0170    -5.4920    49.3380 o          1 TYR      -0.248200
      9 CB          32.4890    -2.1160    49.5260 c3         1 TYR      -0.030600
     10 HB1         33.1000    -2.0470    48.6090 hc         1 TYR       0.030200
     11 HB2         33.1780    -2.5010    50.2980 hc         1 TYR       0.030200
     12 CG          32.0300    -0.7150    49.8830 ca         1 TYR      -0.048200
     13 CD1         32.2930    -0.2240    51.1250 ca         1 TYR      -0.055200
     14 HD1         32.8420    -0.8220    51.8520 ha         1 TYR       0.062100
     15 CD2         31.3170     0.0570    48.9730 ca         1 TYR      -0.055200
     16 HD2         31.0750    -0.3630    47.9970 ha         1 TYR       0.062100
     17 CE1         31.8570     1.0320    51.4460 ca         1 TYR      -0.019900
     18 HE1         32.0340     1.4120    52.4520 ha         1 TYR       0.065400
     19 CE2         30.9070     1.3420    49.2730 ca         1 TYR      -0.019900
     20 HE2         30.3710     1.9510    48.5450 ha         1 TYR       0.065400
     21 CZ          31.2050     1.8270    50.5410 ca         1 TYR       0.116900
     22 OH          30.8150     2.9790    50.9180 oh         1 TYR      -0.506800
     23 HH          31.5880     3.6530    50.8210 ho         1 TYR       0.292100
     24 OXT         32.3720    -4.3160    47.5370 o          1 TYR      -0.248200
@<TRIPOS>BOND
     1     1     5 1   
     2     1     2 1   
     3     1     3 1   
     4     1     4 1   
     5     5     7 1   
     6     5     9 1   
     7     5     6 1   
     8     7     8 1   
     9     7    24 1   
    10     9    12 1   
    11     9    10 1   
    12     9    11 1   
    13    12    13 ar  
    14    12    15 ar  
    15    13    17 ar  
    16    13    14 1   
    17    15    19 ar  
    18    15    16 1   
    19    17    21 ar  
    20    17    18 1   
    21    19    21 ar  
    22    19    20 1   
    23    21    22 1   
    24    22    23 1   
@<TRIPOS>SUBSTRUCTURE
     1 TYR         1 TEMP              0 ****  ****    0 ROOT
