REMARK  5 active torsions:
REMARK  status: ('A' for Active; 'I' for Inactive)
REMARK    1  A    between atoms: N_1  and  CA_5 
REMARK    2  A    between atoms: CA_5  and  C_6 
REMARK    3  A    between atoms: CA_5  and  CB_8 
REMARK    4  A    between atoms: CB_8  and  CG_9 
REMARK    5  A    between atoms: CZ_14  and  OH_15 
ROOT
ATOM      1  CB  TYR d   1      32.489  -2.116  49.526  0.00  0.00     0.082 C 
ENDROOT
BRANCH   1   2
ATOM      2  CA  TYR d   1      31.378  -3.131  49.255  0.00  0.00     0.287 C 
BRANCH   2   3
ATOM      3  N   TYR d   1      30.677  -3.370  50.516  0.00  0.00    -0.065 N 
ATOM      4  H1  TYR d   1      30.344  -2.600  51.061  0.00  0.00     0.275 HD
ATOM      5  H2  TYR d   1      29.916  -4.016  50.351  0.00  0.00     0.275 HD
ATOM      6  H3  TYR d   1      31.306  -3.968  51.050  0.00  0.00     0.275 HD
ENDBRANCH   2   3
BRANCH   2   7
ATOM      7  C   TYR d   1      31.967  -4.405  48.694  0.00  0.00     0.204 C 
ATOM      8  O   TYR d   1      32.017  -5.492  49.338  0.00  0.00    -0.646 OA
ATOM      9  OXT TYR d   1      32.372  -4.316  47.537  0.00  0.00    -0.646 OA
ENDBRANCH   2   7
ENDBRANCH   1   2
BRANCH   1  10
ATOM     10  CG  TYR d   1      32.030  -0.715  49.883  0.00  0.00    -0.056 A 
ATOM     11  CD1 TYR d   1      32.293  -0.224  51.125  0.00  0.00     0.010 A 
ATOM     12  CE1 TYR d   1      31.857   1.032  51.446  0.00  0.00     0.037 A 
ATOM     13  CZ  TYR d   1      31.205   1.827  50.541  0.00  0.00     0.065 A 
ATOM     14  CE2 TYR d   1      30.907   1.342  49.273  0.00  0.00     0.037 A 
ATOM     15  CD2 TYR d   1      31.317   0.057  48.973  0.00  0.00     0.010 A 
BRANCH  13  16
ATOM     16  OH  TYR d   1      30.815   2.979  50.918  0.00  0.00    -0.361 OA
ATOM     17  HH  TYR d   1      31.588   3.653  50.821  0.00  0.00     0.217 HD
ENDBRANCH  13  16
ENDBRANCH   1  10
TORSDOF 5
