REMARK  5 active torsions:
REMARK  status: ('A' for Active; 'I' for Inactive)
REMARK    1  A    between atoms: N_1  and  CA_5 
REMARK    2  A    between atoms: CA_5  and  C_7 
REMARK    3  A    between atoms: CA_5  and  CB_9 
REMARK    4  A    between atoms: CB_9  and  CG_10 
REMARK    5  A    between atoms: CZ_19  and  OH_20 
ROOT
ATOM      1  CG  TYR d          32.030  -0.715  49.883  0.00  0.00    -0.044 A 
ATOM      2 CD1  TYR d          32.293  -0.224  51.125  0.00  0.00     0.000 Cd
ATOM      3  HD1 TYR d          32.842  -0.822  51.852  0.00  0.00     0.000 HD
ATOM      4 CD2  TYR d          31.317   0.057  48.973  0.00  0.00     0.000 Cd
ATOM      5  HD2 TYR d          31.075  -0.363  47.997  0.00  0.00     0.000 HD
ATOM      6 CE1  TYR d          31.857   1.032  51.446  0.00  0.00     0.000 Ce
ATOM      7 HE1  TYR d          32.034   1.412  52.452  0.00  0.00     0.000 He
ATOM      8 CE2  TYR d          30.907   1.342  49.273  0.00  0.00     0.000 Ce
ATOM      9 HE2  TYR d          30.371   1.951  48.545  0.00  0.00     0.000 He
ATOM     10  CZ  TYR d          31.205   1.827  50.541  0.00  0.00     0.138 A 
ENDROOT
BRANCH   1  11
ATOM     11  CB  TYR d          32.489  -2.116  49.526  0.00  0.00     0.044 C 
BRANCH  11  12
ATOM     12 CA   TYR d          31.378  -3.131  49.255  0.00  0.00     0.000 Ca
ATOM     13  HA  TYR d          30.655  -2.742  48.523  0.00  0.00     0.000 HD
BRANCH  12  14
ATOM     14  N   TYR d          30.677  -3.370  50.516  0.00  0.00     0.072 N 
ATOM     15  H1  TYR d          30.344  -2.600  51.061  0.00  0.00     0.309 HD
ATOM     16  H2  TYR d          29.916  -4.016  50.351  0.00  0.00     0.309 HD
ATOM     17  H3  TYR d          31.306  -3.968  51.050  0.00  0.00     0.309 HD
ENDBRANCH  12  14
BRANCH  12  18
ATOM     18  C   TYR d          31.967  -4.405  48.694  0.00  0.00     0.279 C 
ATOM     19  O   TYR d          32.017  -5.492  49.338  0.00  0.00    -0.639 OA
ATOM     20  OXT TYR d          32.372  -4.316  47.537  0.00  0.00    -0.639 OA
ENDBRANCH  12  18
ENDBRANCH  11  12
ENDBRANCH   1  11
BRANCH  10  21
ATOM     21  OH  TYR d          30.815   2.979  50.918  0.00  0.00    -0.356 OA
ATOM     22  HH  TYR d          31.588   3.653  50.821  0.00  0.00     0.218 HD
ENDBRANCH  10  21
TORSDOF 5
