@<TRIPOS>MOLECULE
LIGAND
   24    24     1     0     0
SMALL
No Charge or Current Charge


@<TRIPOS>ATOM
      1 N            7.2940    27.6690    15.0320 n4         1 TYR       0.387300
      2 H1           8.2550    27.7290    14.7610 hn         1 TYR      -0.088900
      3 H2           7.0040    26.7050    15.0160 hn         1 TYR      -0.088900
      4 H3           6.6690    28.0850    14.3330 hn         1 TYR      -0.088900
      5 CA           6.8540    28.3310    16.2960 c3         1 TYR       0.024500
      6 HA           7.0760    27.6490    17.1310 hx         1 TYR       0.020100
      7 C            5.3540    28.5940    16.2400 c          1 TYR       0.342300
      8 O            4.7930    29.0130    17.2730 o          1 TYR      -0.248200
      9 CB           7.5920    29.6610    16.4880 c3         1 TYR      -0.030600
     10 HB1          7.2760    30.0730    17.4610 hc         1 TYR       0.030200
     11 HB2          7.2620    30.3930    15.7320 hc         1 TYR       0.030200
     12 CG           9.0970    29.5370    16.4750 ca         1 TYR      -0.048200
     13 CD1          9.7530    28.6950    17.3710 ca         1 TYR      -0.055200
     14 CD2          9.8670    30.2590    15.5640 ca         1 TYR      -0.055200
     15 CE1         11.1390    28.5750    17.3610 ca         1 TYR      -0.019900
     16 CE2         11.2520    30.1450    15.5470 ca         1 TYR      -0.019900
     17 CZ          11.8810    29.3030    16.4470 ca         1 TYR       0.116900
     18 OH          13.2570    29.1950    16.4370 oh         1 TYR      -0.506800
     19 HH          13.5240    28.2170    16.2560 ho         1 TYR       0.292100
     20 OXT          4.7690    28.3980    15.1540 o          1 TYR      -0.248200
     21 HD1          9.1710    28.1210    18.0920 ha         1 TYR       0.062100
     22 HD2          9.3750    30.9240    14.8540 ha         1 TYR       0.062100
     23 HE1         11.6370    27.9120    18.0680 ha         1 TYR       0.065400
     24 HE2         11.8400    30.7160    14.8280 ha         1 TYR       0.065400
@<TRIPOS>BOND
     1     1     5 1   
     2     1     2 1   
     3     1     3 1   
     4     1     4 1   
     5     5     7 1   
     6     5     9 1   
     7     5     6 1   
     8     7     8 1   
     9     7    20 1   
    10     9    12 1   
    11     9    10 1   
    12     9    11 1   
    13    12    13 ar  
    14    12    14 ar  
    15    13    15 ar  
    16    14    16 ar  
    17    15    17 ar  
    18    16    17 ar  
    19    17    18 1   
    20    18    19 1   
    21    13    21 1   
    22    14    22 1   
    23    15    23 1   
    24    16    24 1   
@<TRIPOS>SUBSTRUCTURE
     1 TYR         1 TEMP              0 ****  ****    0 ROOT
