@<TRIPOS>MOLECULE
MOL
   38    40     1     0     0
SMALL
No Charge or Current Charge


@<TRIPOS>ATOM
      1 C1          49.2570    16.6930    19.8180 c          1 MOL       0.000000
      2 O1          50.1910    15.8850    19.9930 o          1 MOL       0.000000
      3 N1          47.9540    16.2540    19.5760 n          1 MOL       0.000000
      4 H1          47.2560    16.9330    19.2400 hn         1 MOL       0.000000
      5 C2          47.5500    14.8870    19.7780 c3         1 MOL       0.000000
      6 C3          46.1380    14.5870    19.3280 cc         1 MOL       0.000000
      7 N2          45.7790    13.4410    18.7640 nd         1 MOL       0.000000
      8 C4          44.4140    13.4770    18.4660 ca         1 MOL       0.000000
      9 C5          43.7530    14.7210    18.8360 ca         1 MOL       0.000000
     10 C6          43.6740    12.4120    17.8500 ca         1 MOL       0.000000
     11 S1          44.8830    15.7620    19.5310 ss         1 MOL       0.000000
     12 C7          42.3510    14.8770    18.5780 ca         1 MOL       0.000000
     13 F1          41.7190    16.0290    18.9160 f          1 MOL       0.000000
     14 C8          41.6180    13.8260    17.9700 ca         1 MOL       0.000000
     15 C9          42.2770    12.6010    17.6070 ca         1 MOL       0.000000
     16 F2          41.5600    11.6110    17.0280 f          1 MOL       0.000000
     17 F3          44.2710    11.2690    17.5070 f          1 MOL       0.000000
     18 C10         49.4970    18.1770    19.8560 ca         1 MOL       0.000000
     19 C11         49.5990    18.8030    21.1380 ca         1 MOL       0.000000
     20 C12         49.8220    20.2010    21.2650 ca         1 MOL       0.000000
     21 C13         49.9510    21.0030    20.0810 ca         1 MOL       0.000000
     22 C14         49.8570    20.4150    18.7990 ca         1 MOL       0.000000
     23 F4          50.1650    22.3370    20.1550 f          1 MOL       0.000000
     24 C15         49.6290    19.0070    18.6810 ca         1 MOL       0.000000
     25 O2          49.5190    18.3360    17.4540 os         1 MOL       0.000000
     26 C16         48.4670    18.6860    16.5450 c3         1 MOL       0.000000
     27 C17         47.1520    18.1700    17.0990 c          1 MOL       0.000000
     28 O3          46.3170    18.6990    17.8370 oh         1 MOL       0.000000
     29 O4          46.9080    16.9130    16.6760 o          1 MOL       0.000000
     30 H2          48.2180    14.2550    19.2310 h1         1 MOL       0.000000
     31 H3          47.5820    14.7090    20.8330 h1         1 MOL       0.000000
     32 H4          40.6090    13.9410    17.7880 ha         1 MOL       0.000000
     33 H5          49.5090    18.2270    21.9890 ha         1 MOL       0.000000
     34 H6          49.8910    20.6350    22.1990 ha         1 MOL       0.000000
     35 H7          49.9520    20.9980    17.9530 ha         1 MOL       0.000000
     36 H8          48.4210    19.7500    16.4410 h1         1 MOL       0.000000
     37 H9          48.6540    18.2500    15.5860 h1         1 MOL       0.000000
     38 H10         46.4540    19.5720    18.1500 ho         1 MOL       0.000000
@<TRIPOS>BOND
     1     1    18 1   
     2     1     2 2   
     3     3     5 1   
     4     3     1 1   
     5     4     3 1   
     6     5    30 1   
     7     5    31 1   
     8     6    11 1   
     9     6     5 1   
    10     7     6 2   
    11     8     7 1   
    12     8     9 ar  
    13     9    11 1   
    14    10     8 ar  
    15    12     9 ar  
    16    12    13 1   
    17    14    12 ar  
    18    14    32 1   
    19    15    10 ar  
    20    15    14 ar  
    21    16    15 1   
    22    17    10 1   
    23    18    19 ar  
    24    19    20 ar  
    25    19    33 1   
    26    20    34 1   
    27    21    23 1   
    28    21    20 ar  
    29    22    21 ar  
    30    22    35 1   
    31    24    22 ar  
    32    24    18 ar  
    33    25    24 1   
    34    26    27 1   
    35    26    25 1   
    36    26    36 1   
    37    26    37 1   
    38    27    28 1   
    39    28    38 1   
    40    29    27 2   
@<TRIPOS>SUBSTRUCTURE
     1 MOL         1 TEMP              0 ****  ****    0 ROOT
