@<TRIPOS>MOLECULE
MOL
   51    53     1     0     0
SMALL
No Charge or Current Charge


@<TRIPOS>ATOM
      1 C1          38.1960    30.2350    55.8440 cc         1 MOL       0.000000
      2 N1          37.1940    29.9170    56.7920 n          1 MOL       0.000000
      3 C2          37.1480    28.6500    57.4190 c          1 MOL       0.000000
      4 O1          36.3200    28.3410    58.2740 o          1 MOL       0.000000
      5 N2          38.1300    27.7510    57.0460 n          1 MOL       0.000000
      6 H1          38.1010    26.8240    57.4940 hn         1 MOL       0.000000
      7 C3          39.1520    27.9690    56.1270 c          1 MOL       0.000000
      8 O2          39.9570    27.0710    55.8850 o          1 MOL       0.000000
      9 C4          39.1860    29.2780    55.5060 cd         1 MOL       0.000000
     10 C5          36.1750    30.9160    57.2360 c3         1 MOL       0.000000
     11 O3          36.6620    31.6580    58.3410 os         1 MOL       0.000000
     12 C6          36.1630    31.1670    59.5740 c3         1 MOL       0.000000
     13 C7          35.0750    32.0510    60.0980 ca         1 MOL       0.000000
     14 C8          33.7260    31.6700    59.9620 ca         1 MOL       0.000000
     15 C9          32.7070    32.4400    60.5540 ca         1 MOL       0.000000
     16 C10         33.0460    33.6000    61.2860 ca         1 MOL       0.000000
     17 C11         34.4040    33.9810    61.4140 ca         1 MOL       0.000000
     18 C12         35.4140    33.2010    60.8150 ca         1 MOL       0.000000
     19 C13         38.1760    31.6580    55.2550 c3         1 MOL       0.000000
     20 C14         39.4000    32.5570    55.3440 ca         1 MOL       0.000000
     21 C15         40.0070    32.7550    56.5950 ca         1 MOL       0.000000
     22 C16         41.2090    33.5050    56.6860 ca         1 MOL       0.000000
     23 C17         41.7940    34.0570    55.5140 ca         1 MOL       0.000000
     24 C18         41.1780    33.8610    54.2610 ca         1 MOL       0.000000
     25 C19         39.9800    33.1120    54.1830 ca         1 MOL       0.000000
     26 C20         40.4120    29.5030    54.5960 c3         1 MOL       0.000000
     27 C21         40.4260    28.6590    53.3080 c3         1 MOL       0.000000
     28 C22         41.7290    29.5990    55.3370 c3         1 MOL       0.000000
     29 H2          35.2800    30.4040    57.5220 h2         1 MOL       0.000000
     30 H3          35.9710    31.5880    56.4280 h2         1 MOL       0.000000
     31 H4          36.9610    31.1330    60.2860 h1         1 MOL       0.000000
     32 H5          35.7620    30.1880    59.4160 h1         1 MOL       0.000000
     33 H6          33.4830    30.8220    59.4260 ha         1 MOL       0.000000
     34 H7          31.7190    32.1590    60.4540 ha         1 MOL       0.000000
     35 H8          32.3060    34.1680    61.7260 ha         1 MOL       0.000000
     36 H9          34.6540    34.8290    61.9460 ha         1 MOL       0.000000
     37 H10         36.4040    33.4800    60.9060 ha         1 MOL       0.000000
     38 H11         37.9490    31.5540    54.2150 hc         1 MOL       0.000000
     39 H12         37.4670    32.1620    55.8780 hc         1 MOL       0.000000
     40 H13         39.5800    32.3560    57.4460 ha         1 MOL       0.000000
     41 H14         41.6580    33.6500    57.6040 ha         1 MOL       0.000000
     42 H15         42.6690    34.6010    55.5800 ha         1 MOL       0.000000
     43 H16         41.5980    34.2610    53.4070 ha         1 MOL       0.000000
     44 H17         39.5260    32.9700    53.2670 ha         1 MOL       0.000000
     45 H18         40.2790    30.4940    54.2150 hc         1 MOL       0.000000
     46 H19         40.5550    27.6270    53.5590 hc         1 MOL       0.000000
     47 H20         41.2330    28.9770    52.6820 hc         1 MOL       0.000000
     48 H21         39.4990    28.7860    52.7880 hc         1 MOL       0.000000
     49 H22         41.9660    28.6480    55.7670 hc         1 MOL       0.000000
     50 H23         41.6490    30.3320    56.1130 hc         1 MOL       0.000000
     51 H24         42.5020    29.8850    54.6550 hc         1 MOL       0.000000
@<TRIPOS>BOND
     1     1     2 1   
     2     2    10 1   
     3     2     3 1   
     4     3     4 2   
     5     5     3 1   
     6     5     6 1   
     7     7     5 1   
     8     8     7 2   
     9     9     1 2   
    10     9     7 1   
    11    10    11 1   
    12    10    29 1   
    13    10    30 1   
    14    11    12 1   
    15    12    13 1   
    16    12    31 1   
    17    12    32 1   
    18    13    18 ar  
    19    14    13 ar  
    20    14    15 ar  
    21    14    33 1   
    22    15    16 ar  
    23    15    34 1   
    24    16    17 ar  
    25    16    35 1   
    26    17    36 1   
    27    18    17 ar  
    28    18    37 1   
    29    19    20 1   
    30    19     1 1   
    31    19    38 1   
    32    19    39 1   
    33    20    21 ar  
    34    21    22 ar  
    35    21    40 1   
    36    22    41 1   
    37    23    22 ar  
    38    23    42 1   
    39    24    23 ar  
    40    24    43 1   
    41    25    24 ar  
    42    25    20 ar  
    43    25    44 1   
    44    26    28 1   
    45    26     9 1   
    46    26    45 1   
    47    27    26 1   
    48    27    46 1   
    49    27    47 1   
    50    27    48 1   
    51    28    49 1   
    52    28    50 1   
    53    28    51 1   
@<TRIPOS>SUBSTRUCTURE
     1 MOL         1 TEMP              0 ****  ****    0 ROOT
