MODEL 1
REMARK VINA RESULT:      -8.5      0.000      0.000
REMARK  1 active torsions:
REMARK  status: ('A' for Active; 'I' for Inactive)
REMARK    1  A    between atoms: N2_22  and  O1_23 
ROOT
ATOM      1  C   UNL d           5.858   6.948  21.407  0.00  0.00     0.024 A 
ATOM      2  C1  UNL d           6.644   6.063  20.489  0.00  0.00     0.124 A 
ATOM      3  C2  UNL d           5.256   6.086  22.355  0.00  0.00     0.045 A 
ATOM      4  N   UNL d           5.578   4.786  22.105  0.00  0.00    -0.353 N 
ATOM      5  H   UNL d           5.249   3.993  22.676  0.00  0.00     0.166 HD
ATOM      6  C3  UNL d           4.441   6.577  23.395  0.00  0.00     0.030 A 
ATOM      7  C4  UNL d           4.218   7.976  23.475  0.00  0.00     0.002 A 
ATOM      8  C5  UNL d           4.818   8.854  22.518  0.00  0.00     0.001 A 
ATOM      9  C6  UNL d           5.651   8.342  21.470  0.00  0.00     0.016 A 
ATOM     10  C7  UNL d           6.392   4.649  21.001  0.00  0.00     0.081 A 
ATOM     11  C8  UNL d           6.863   3.469  20.510  0.00  0.00     0.073 A 
ATOM     12  C9  UNL d           6.315   2.183  21.122  0.00  0.00     0.259 A 
ATOM     13  N1  UNL d           6.982   1.148  20.483  0.00  0.00    -0.322 N 
ATOM     14  H5  UNL d           6.829   0.149  20.684  0.00  0.00     0.169 HD
ATOM     15  C10 UNL d           7.880   1.625  19.540  0.00  0.00     0.046 A 
ATOM     16  C11 UNL d           7.864   3.045  19.495  0.00  0.00     0.009 A 
ATOM     17  C12 UNL d           8.719   0.829  18.728  0.00  0.00     0.030 A 
ATOM     18  C13 UNL d           9.589   1.489  17.828  0.00  0.00     0.002 A 
ATOM     19  C14 UNL d           9.600   2.917  17.755  0.00  0.00     0.001 A 
ATOM     20  C15 UNL d           8.733   3.697  18.590  0.00  0.00     0.015 A 
ATOM     21  O   UNL d           5.468   2.062  22.008  0.00  0.00    -0.267 OA
ATOM     22  N2  UNL d           7.416   6.348  19.486  0.00  0.00    -0.133 NA
ENDROOT
BRANCH  22  23
ATOM     23  O1  UNL d           7.551   7.701  19.170  0.00  0.00    -0.266 OA
ATOM     24  H10 UNL d           8.515   7.886  18.856  0.00  0.00     0.247 HD
ENDBRANCH  22  23
TORSDOF 1
ENDMDL
MODEL 2
REMARK VINA RESULT:      -8.0      1.026      6.809
REMARK  1 active torsions:
REMARK  status: ('A' for Active; 'I' for Inactive)
REMARK    1  A    between atoms: N2_22  and  O1_23 
ROOT
ATOM      1  C   UNL d           7.440   2.715  19.812  0.00  0.00     0.024 A 
ATOM      2  C1  UNL d           6.569   3.539  20.711  0.00  0.00     0.124 A 
ATOM      3  C2  UNL d           8.288   3.632  19.147  0.00  0.00     0.045 A 
ATOM      4  N   UNL d           8.020   4.912  19.532  0.00  0.00    -0.353 N 
ATOM      5  H   UNL d           8.525   5.736  19.174  0.00  0.00     0.166 HD
ATOM      6  C3  UNL d           9.261   3.208  18.220  0.00  0.00     0.030 A 
ATOM      7  C4  UNL d           9.373   1.820  17.947  0.00  0.00     0.002 A 
ATOM      8  C5  UNL d           8.517   0.886  18.610  0.00  0.00     0.001 A 
ATOM      9  C6  UNL d           7.536   1.331  19.557  0.00  0.00     0.016 A 
ATOM     10  C7  UNL d           6.998   4.980  20.454  0.00  0.00     0.081 A 
ATOM     11  C8  UNL d           6.510   6.125  21.007  0.00  0.00     0.073 A 
ATOM     12  C9  UNL d           7.013   7.450  20.441  0.00  0.00     0.259 A 
ATOM     13  N1  UNL d           6.403   8.439  21.199  0.00  0.00    -0.322 N 
ATOM     14  H5  UNL d           6.549   9.449  21.058  0.00  0.00     0.169 HD
ATOM     15  C10 UNL d           5.573   7.899  22.170  0.00  0.00     0.046 A 
ATOM     16  C11 UNL d           5.583   6.479  22.115  0.00  0.00     0.009 A 
ATOM     17  C12 UNL d           4.817   8.637  23.108  0.00  0.00     0.030 A 
ATOM     18  C13 UNL d           4.035   7.916  24.042  0.00  0.00     0.002 A 
ATOM     19  C14 UNL d           4.019   6.487  24.015  0.00  0.00     0.001 A 
ATOM     20  C15 UNL d           4.794   5.766  23.047  0.00  0.00     0.015 A 
ATOM     21  O   UNL d           7.806   7.631  19.516  0.00  0.00    -0.267 OA
ATOM     22  N2  UNL d           5.659   3.192  21.568  0.00  0.00    -0.133 NA
ENDROOT
BRANCH  22  23
ATOM     23  O1  UNL d           5.411   1.824  21.692  0.00  0.00    -0.266 OA
ATOM     24  H10 UNL d           6.059   1.418  22.383  0.00  0.00     0.247 HD
ENDBRANCH  22  23
TORSDOF 1
ENDMDL
MODEL 3
REMARK VINA RESULT:      -8.0      4.425      6.185
REMARK  1 active torsions:
REMARK  status: ('A' for Active; 'I' for Inactive)
REMARK    1  A    between atoms: N2_22  and  O1_23 
ROOT
ATOM      1  C   UNL d           8.547   7.711  24.325  0.00  0.00     0.024 A 
ATOM      2  C1  UNL d           7.431   7.368  23.386  0.00  0.00     0.124 A 
ATOM      3  C2  UNL d           9.427   8.543  23.593  0.00  0.00     0.045 A 
ATOM      4  N   UNL d           8.977   8.729  22.320  0.00  0.00    -0.353 N 
ATOM      5  H   UNL d           9.464   9.305  21.618  0.00  0.00     0.166 HD
ATOM      6  C3  UNL d          10.599   9.075  24.168  0.00  0.00     0.030 A 
ATOM      7  C4  UNL d          10.897   8.749  25.516  0.00  0.00     0.002 A 
ATOM      8  C5  UNL d          10.016   7.905  26.262  0.00  0.00     0.001 A 
ATOM      9  C6  UNL d           8.823   7.376  25.667  0.00  0.00     0.016 A 
ATOM     10  C7  UNL d           7.797   8.059  22.077  0.00  0.00     0.081 A 
ATOM     11  C8  UNL d           7.123   8.054  20.894  0.00  0.00     0.073 A 
ATOM     12  C9  UNL d           7.806   8.699  19.692  0.00  0.00     0.259 A 
ATOM     13  N1  UNL d           6.900   8.599  18.645  0.00  0.00    -0.322 N 
ATOM     14  H5  UNL d           7.074   8.951  17.693  0.00  0.00     0.169 HD
ATOM     15  C10 UNL d           5.731   7.966  19.041  0.00  0.00     0.046 A 
ATOM     16  C11 UNL d           5.791   7.598  20.412  0.00  0.00     0.009 A 
ATOM     17  C12 UNL d           4.611   7.718  18.216  0.00  0.00     0.030 A 
ATOM     18  C13 UNL d           3.493   7.072  18.795  0.00  0.00     0.002 A 
ATOM     19  C14 UNL d           3.518   6.687  20.171  0.00  0.00     0.001 A 
ATOM     20  C15 UNL d           4.672   6.949  20.982  0.00  0.00     0.015 A 
ATOM     21  O   UNL d           8.922   9.218  19.638  0.00  0.00    -0.267 OA
ATOM     22  N2  UNL d           6.347   6.678  23.568  0.00  0.00    -0.133 NA
ENDROOT
BRANCH  22  23
ATOM     23  O1  UNL d           6.161   6.136  24.840  0.00  0.00    -0.266 OA
ATOM     24  H10 UNL d           6.698   6.682  25.529  0.00  0.00     0.247 HD
ENDBRANCH  22  23
TORSDOF 1
ENDMDL
