@<TRIPOS>MOLECULE
LIGAND
   38    39     1     0     0
SMALL
No Charge or Current Charge


@<TRIPOS>ATOM
      1 O           44.6210    13.4550    17.6070 o          1 UNL      -0.246000
      2 C           43.8740    14.4540    18.1410 c          1 UNL       0.360300
      3 O1          42.7640    14.8300    17.7390 o          1 UNL      -0.246000
      4 C1          44.4900    15.0760    19.3010 c3         1 UNL       0.074400
      5 H           44.6120    14.2550    20.0290 hc         1 UNL       0.042800
      6 H1          43.7660    15.7760    19.7570 hc         1 UNL       0.042800
      7 C2          45.7960    15.7930    19.2060 ca         1 UNL      -0.033600
      8 C3          46.7550    15.4270    20.1980 ca         1 UNL      -0.036000
      9 H2          46.5060    14.6670    20.9390 ha         1 UNL       0.063600
     10 C4          48.0330    16.0490    20.2240 ca         1 UNL       0.084900
     11 C5          48.3870    17.0690    19.2560 ca         1 UNL       0.164900
     12 O2          49.5690    17.7330    19.2050 os         1 UNL      -0.453100
     13 C6          49.7420    18.9740    19.9740 ca         1 UNL       0.129100
     14 C7          49.0350    19.2610    21.2370 ca         1 UNL      -0.015900
     15 H3          48.3310    18.5360    21.6450 ha         1 UNL       0.065500
     16 C8          49.2750    20.4960    21.9270 ca         1 UNL      -0.016400
     17 H4          48.7440    20.7020    22.8560 ha         1 UNL       0.065500
     18 C9          50.2030    21.4660    21.4150 ca         1 UNL       0.120500
     19 O3          50.4060    22.6440    22.1190 oh         1 UNL      -0.506500
     20 H5          51.2810    23.0870    21.8030 ho         1 UNL       0.292100
     21 C10         50.9200    21.2220    20.1640 ca         1 UNL       0.000100
     22 C11         50.6760    19.9660    19.4610 ca         1 UNL      -0.012400
     23 H6          51.2060    19.7660    18.5300 ha         1 UNL       0.065800
     24 C12         51.9350    22.2960    19.6090 c3         1 UNL      -0.018000
     25 H7          52.2710    22.9470    20.4290 hc         1 UNL       0.034500
     26 C13         51.1840    23.1260    18.5450 c3         1 UNL      -0.058500
     27 H8          51.8200    23.9140    18.1120 hc         1 UNL       0.023500
     28 H9          50.8480    22.4730    17.7220 hc         1 UNL       0.023500
     29 H10         50.2890    23.6120    18.9680 hc         1 UNL       0.023500
     30 C14         53.2190    21.6470    18.9470 c3         1 UNL      -0.058500
     31 H11         53.9190    22.4370    18.6320 hc         1 UNL       0.023500
     32 H12         53.7460    20.9830    19.6490 hc         1 UNL       0.023500
     33 H13         52.9540    21.0620    18.0520 hc         1 UNL       0.023500
     34 C15         47.4300    17.4280    18.2780 ca         1 UNL       0.084900
     35 C16         46.1400    16.8120    18.2200 ca         1 UNL      -0.036000
     36 H14         45.4240    17.1000    17.4500 ha         1 UNL       0.063600
     37 Cl          47.7790    18.6250    17.1200 cl         1 UNL      -0.079700
     38 Cl1         49.1380    15.5690    21.3860 cl         1 UNL      -0.079700
@<TRIPOS>BOND
     1     1     2 1   
     2     2     3 1   
     3     2     4 1   
     4     4     7 1   
     5     4     5 1   
     6     4     6 1   
     7     7     8 ar  
     8     7    35 ar  
     9     8    10 ar  
    10     8     9 1   
    11    10    11 ar  
    12    10    38 1   
    13    11    12 1   
    14    11    34 ar  
    15    12    13 1   
    16    13    14 ar  
    17    13    22 ar  
    18    14    16 ar  
    19    14    15 1   
    20    16    18 ar  
    21    16    17 1   
    22    18    19 1   
    23    18    21 ar  
    24    19    20 1   
    25    21    22 ar  
    26    21    24 1   
    27    22    23 1   
    28    24    26 1   
    29    24    30 1   
    30    24    25 1   
    31    26    27 1   
    32    26    28 1   
    33    26    29 1   
    34    30    31 1   
    35    30    32 1   
    36    30    33 1   
    37    34    35 ar  
    38    34    37 1   
    39    35    36 1   
@<TRIPOS>SUBSTRUCTURE
     1 UNL         1 TEMP              0 ****  ****    0 ROOT
