@<TRIPOS>MOLECULE
MOL
   32    31     1     0     0
SMALL
No Charge or Current Charge


@<TRIPOS>ATOM
      1 C1          24.3200    16.7250    62.5510 c3         1 MOL       0.000000
      2 C2          25.1210    15.3330    62.0360 c3         1 MOL       0.000000
      3 C3          24.0970    14.1230    62.1490 c3         1 MOL       0.000000
      4 C4          26.3860    15.0700    62.8110 c3         1 MOL       0.000000
      5 C5          25.5850    15.4310    60.5210 c3         1 MOL       0.000000
      6 O1          25.3030    16.7000    59.9350 oh         1 MOL       0.000000
      7 H1          24.2840    16.8170    59.8440 ho         1 MOL       0.000000
      8 O2          23.4070    16.3720    63.6380 oh         1 MOL       0.000000
      9 H2          22.4550    16.2560    63.2630 ho         1 MOL       0.000000
     10 C6          25.3010    17.8400    63.1430 c          1 MOL       0.000000
     11 O3          25.4700    17.9080    64.4670 o          1 MOL       0.000000
     12 N1          25.9460    18.6520    62.3220 n          1 MOL       0.000000
     13 H3          25.7340    18.5970    61.3150 hn         1 MOL       0.000000
     14 C7          26.9660    19.6420    62.7770 c3         1 MOL       0.000000
     15 C8          28.2640    19.5860    61.9170 c3         1 MOL       0.000000
     16 C9          28.2630    18.3990    60.9280 c          1 MOL       0.000000
     17 O4          27.7750    18.4950    59.6940 o          1 MOL       0.000000
     18 O5          28.7800    17.2840    61.4200 oh         1 MOL       0.000000
     19 H4          23.8240    17.1190    61.6880 h1         1 MOL       0.000000
     20 H5          23.2150    14.3480    61.5870 hc         1 MOL       0.000000
     21 H6          23.8360    13.9710    63.1760 hc         1 MOL       0.000000
     22 H7          24.5500    13.2350    61.7610 hc         1 MOL       0.000000
     23 H8          26.8510    14.1790    62.4440 hc         1 MOL       0.000000
     24 H9          26.1500    14.9480    63.8480 hc         1 MOL       0.000000
     25 H10         27.0550    15.8960    62.6920 hc         1 MOL       0.000000
     26 H11         26.6400    15.2610    60.4760 h1         1 MOL       0.000000
     27 H12         25.0390    14.6940    59.9700 h1         1 MOL       0.000000
     28 H13         26.5480    20.6250    62.7070 h1         1 MOL       0.000000
     29 H14         27.2300    19.4020    63.7860 h1         1 MOL       0.000000
     30 H15         28.3480    20.4970    61.3610 hc         1 MOL       0.000000
     31 H16         29.0920    19.4560    62.5830 hc         1 MOL       0.000000
     32 H17         29.1110    17.2680    62.2960 ho         1 MOL       0.000000
@<TRIPOS>BOND
     1     1    10 1   
     2     1     8 1   
     3     1    19 1   
     4     2     3 1   
     5     2     1 1   
     6     2     4 1   
     7     3    20 1   
     8     3    21 1   
     9     3    22 1   
    10     4    23 1   
    11     4    24 1   
    12     4    25 1   
    13     5     2 1   
    14     5    26 1   
    15     5    27 1   
    16     6     5 1   
    17     7     6 1   
    18     9     8 1   
    19    10    11 2   
    20    12    14 1   
    21    12    10 1   
    22    13    12 1   
    23    14    28 1   
    24    14    29 1   
    25    15    14 1   
    26    15    30 1   
    27    15    31 1   
    28    16    18 1   
    29    16    15 1   
    30    17    16 2   
    31    18    32 1   
@<TRIPOS>SUBSTRUCTURE
     1 MOL         1 TEMP              0 ****  ****    0 ROOT
