@<TRIPOS>MOLECULE
LIGAND
   21    22     1     0     0
SMALL
No Charge or Current Charge


@<TRIPOS>ATOM
      1 O           43.2690    77.8320    53.3530 o          1 PRO      -0.273800
      2 C           43.6110    76.9400    52.5780 c          1 PRO       0.234000
      3 CA          42.6270    76.4090    51.5360 c3         1 PRO       0.102200
      4 HA          42.7640    76.9270    50.5690 h1         1 PRO       0.059700
      5 CB          41.1860    76.4810    52.0440 c3         1 PRO      -0.024300
      6 HB1         40.7820    77.5020    52.0530 hc         1 PRO       0.028800
      7 HB2         41.1220    76.0850    53.0740 hc         1 PRO       0.028800
      8 CG          40.5150    75.4970    51.0830 c3         1 PRO      -0.035000
      9 HG1         40.5120    75.9350    50.0670 hc         1 PRO       0.028100
     10 HG2         39.4720    75.2330    51.3140 hc         1 PRO       0.028100
     11 CD          41.4670    74.2990    51.1510 c3         1 PRO       0.015600
     12 HD1         41.4980    73.6540    50.2620 h1         1 PRO       0.046500
     13 HD2         41.2560    73.6650    52.0290 h1         1 PRO       0.046500
     14 N           42.7800    74.9600    51.3370 n          1 PRO      -0.288600
     15 C           44.0560    74.3900    51.4430 c          2 GLY       0.233400
     16 O           44.1980    73.1760    51.2990 o          2 GLY      -0.273900
     17 CA          45.2760    75.2600    51.7590 c3         2 GLY       0.088400
     18 HA1         45.6940    75.6450    50.8130 h1         2 GLY       0.055800
     19 HA2         46.0080    74.6040    52.2480 h1         2 GLY       0.055800
     20 N           44.8940    76.3810    52.6500 n          2 GLY      -0.305200
     21 H           45.5760    76.7520    53.3270 hn         2 GLY       0.149200
@<TRIPOS>BOND
     1     1     2 2   
     2     2     3 1   
     3     2    20 1   
     4     3     5 1   
     5     3    14 1   
     6     3     4 1   
     7     5     8 1   
     8     5     6 1   
     9     5     7 1   
    10     8    11 1   
    11     8     9 1   
    12     8    10 1   
    13    11    14 1   
    14    11    12 1   
    15    11    13 1   
    16    14    15 1   
    17    15    16 2   
    18    15    17 1   
    19    17    20 1   
    20    17    18 1   
    21    17    19 1   
    22    20    21 1   
@<TRIPOS>SUBSTRUCTURE
     1 PRO         1 TEMP              0 ****  ****    0 ROOT
