@<TRIPOS>MOLECULE
MOL
   38    40     1     0     0
SMALL
No Charge or Current Charge


@<TRIPOS>ATOM
      1 C1          35.9900    58.5550    76.4210 cc         1 MOL       0.000000
      2 C2          37.1900    58.1790    75.7130 cc         1 MOL       0.000000
      3 C3          38.3650    57.6000    76.2680 cd         1 MOL       0.000000
      4 C4          38.3750    57.4060    77.6700 cd         1 MOL       0.000000
      5 C5          39.5080    56.9370    78.3230 cc         1 MOL       0.000000
      6 C6          39.6140    56.8190    79.7550 cc         1 MOL       0.000000
      7 C7          38.3760    57.2740    80.4150 cc         1 MOL       0.000000
      8 C8          37.2270    57.7610    79.8300 cd         1 MOL       0.000000
      9 C9          37.2340    57.8130    78.4670 cd         1 MOL       0.000000
     10 C10         36.1400    58.3460    77.8360 cc         1 MOL       0.000000
     11 C11         40.7770    56.3330    80.4840 c2         1 MOL       0.000000
     12 O1          40.9100    56.7100    81.6430 o          1 MOL       0.000000
     13 N1          41.7220    55.6860    79.7300 n          1 MOL       0.000000
     14 H1          41.5290    55.5140    78.7320 hn         1 MOL       0.000000
     15 C12         42.9190    55.2560    80.2600 ca         1 MOL       0.000000
     16 C13         42.9820    53.8620    80.3670 ca         1 MOL       0.000000
     17 C14         44.0950    53.2680    80.9630 ca         1 MOL       0.000000
     18 C15         45.1720    54.1120    81.3770 ca         1 MOL       0.000000
     19 C16         45.1670    55.4930    81.1910 ca         1 MOL       0.000000
     20 C17         44.0250    56.0750    80.6170 ca         1 MOL       0.000000
     21 C18         34.7520    59.0920    75.7740 c2         1 MOL       0.000000
     22 N2          34.9740    59.8900    74.6940 nh         1 MOL       0.000000
     23 H2          35.9360    60.0650    74.3710 hn         1 MOL       0.000000
     24 H3          34.1780    60.3190    74.2000 hn         1 MOL       0.000000
     25 N3          33.5160    58.7980    76.2820 nh         1 MOL       0.000000
     26 H4          33.3950    57.9890    76.9070 hn         1 MOL       0.000000
     27 H5          32.7060    59.3850    76.0370 hn         1 MOL       0.000000
     28 H6          37.1970    58.3480    74.6950 ha         1 MOL       0.000000
     29 H7          39.1690    57.3350    75.6780 ha         1 MOL       0.000000
     30 H8          40.3190    56.6570    77.7500 ha         1 MOL       0.000000
     31 H9          38.3690    57.2210    81.4460 ha         1 MOL       0.000000
     32 H10         36.4140    58.0670    80.3870 ha         1 MOL       0.000000
     33 H11         35.3470    58.6240    78.4350 ha         1 MOL       0.000000
     34 H12         42.2110    53.2780    80.0080 ha         1 MOL       0.000000
     35 H13         44.1400    52.2460    81.1010 ha         1 MOL       0.000000
     36 H14         45.9900    53.6790    81.8340 ha         1 MOL       0.000000
     37 H15         45.9770    56.0700    81.4660 ha         1 MOL       0.000000
     38 H16         43.9890    57.0930    80.4550 ha         1 MOL       0.000000
@<TRIPOS>BOND
     1     1    10 1   
     2     2     3 2   
     3     2     1 1   
     4     2    28 1   
     5     3     4 1   
     6     3    29 1   
     7     4     5 2   
     8     4     9 1   
     9     5     6 1   
    10     5    30 1   
    11     6     7 1   
    12     6    11 2   
    13     7    31 1   
    14     8     7 2   
    15     8    32 1   
    16     9     8 1   
    17    10     9 2   
    18    10    33 1   
    19    11    12 1   
    20    13    15 1   
    21    13    11 1   
    22    14    13 1   
    23    15    16 ar  
    24    15    20 ar  
    25    16    17 ar  
    26    16    34 1   
    27    17    18 ar  
    28    17    35 1   
    29    18    36 1   
    30    19    18 ar  
    31    19    37 1   
    32    20    19 ar  
    33    20    38 1   
    34    21    25 1   
    35    21     1 2   
    36    22    21 1   
    37    23    22 1   
    38    24    22 1   
    39    25    26 1   
    40    27    25 1   
@<TRIPOS>SUBSTRUCTURE
     1 MOL         1 TEMP              0 ****  ****    0 ROOT
