@<TRIPOS>MOLECULE
LIGAND
   30    31     1     0     0
SMALL
No Charge or Current Charge


@<TRIPOS>ATOM
      1 C           68.9350    22.1920   190.6920 ca         1 UNL      -0.053800
      2 H           69.9290    22.5190   190.3880 ha         1 UNL       0.062400
      3 C1          68.2400    25.9030   187.0300 ca         1 UNL      -0.061700
      4 H1          68.3420    26.6850   186.2780 ha         1 UNL       0.061800
      5 C2          67.3810    24.7990   186.7850 ca         1 UNL      -0.061200
      6 H2          66.8310    24.7370   185.8460 ha         1 UNL       0.061800
      7 C3          67.2340    23.7680   187.7660 ca         1 UNL      -0.054000
      8 H3          66.5730    22.9220   187.5760 ha         1 UNL       0.062400
      9 C4          67.5220    19.7020   193.2190 c3         1 UNL       0.082800
     10 H4          68.5100    19.2110   193.2410 hc         1 UNL       0.046100
     11 C5          67.3680    20.4630   194.5350 c          1 UNL       0.363000
     12 C6          66.4530    18.6280   192.9680 c3         1 UNL      -0.048000
     13 H5          66.5890    18.1580   191.9820 hc         1 UNL       0.024100
     14 H6          66.5100    17.8320   193.7270 hc         1 UNL       0.024100
     15 H7          65.4340    19.0450   193.0060 hc         1 UNL       0.024100
     16 C7          68.8390    21.2130   191.6910 ca         1 UNL      -0.057200
     17 H8          69.7380    20.7950   192.1440 ha         1 UNL       0.062100
     18 C8          67.5640    20.7790   192.0990 ca         1 UNL      -0.033800
     19 C9          66.3870    21.3340   191.4880 ca         1 UNL      -0.057200
     20 H9          65.4030    20.9890   191.8050 ha         1 UNL       0.062100
     21 C10         66.4890    22.3310   190.4710 ca         1 UNL      -0.053800
     22 H10         65.5900    22.7460   190.0160 ha         1 UNL       0.062400
     23 C11         67.8030    22.7880   190.0480 cp         1 UNL      -0.017900
     24 C12         67.9560    23.8520   188.9940 cp         1 UNL      -0.017900
     25 C13         68.8390    24.9870   189.2370 ca         1 UNL      -0.054000
     26 H11         69.3980    25.0640   190.1700 ha         1 UNL       0.062400
     27 C14         68.9600    25.9970   188.2330 ca         1 UNL      -0.061200
     28 H12         69.6180    26.8490   188.4020 ha         1 UNL       0.061800
     29 O           66.3390    20.9560   194.9100 o          1 UNL      -0.245700
     30 O1          68.4620    20.5310   195.2230 o          1 UNL      -0.245700
@<TRIPOS>BOND
     1     1    16 ar  
     2     1    23 ar  
     3     1     2 1   
     4     3     5 ar  
     5     3    27 ar  
     6     3     4 1   
     7     5     7 ar  
     8     5     6 1   
     9     7    24 ar  
    10     7     8 1   
    11     9    11 1   
    12     9    12 1   
    13     9    18 1   
    14     9    10 1   
    15    11    29 1   
    16    11    30 1   
    17    12    13 1   
    18    12    14 1   
    19    12    15 1   
    20    16    18 ar  
    21    16    17 1   
    22    18    19 ar  
    23    19    21 ar  
    24    19    20 1   
    25    21    23 ar  
    26    21    22 1   
    27    23    24 1   
    28    24    25 ar  
    29    25    27 ar  
    30    25    26 1   
    31    27    28 1   
@<TRIPOS>SUBSTRUCTURE
     1 UNL         1 TEMP              0 ****  ****    0 ROOT
