@<TRIPOS>MOLECULE
LIGAND
   34    36     1     0     0
SMALL
No Charge or Current Charge


@<TRIPOS>ATOM
      1 O           17.1440    22.5530    10.0490 oh         1 UNL      -0.394600
      2 H           17.8320    23.1890     9.6220 ho         1 UNL       0.209400
      3 O1          18.0440    18.2640     9.2600 oh         1 UNL      -0.391300
      4 H1          17.1840    17.9520     8.7860 ho         1 UNL       0.209800
      5 O2          22.6070    20.6670     9.1950 o          1 UNL      -0.246500
      6 O3          23.4170    24.9120    10.1500 o          1 UNL      -0.267400
      7 N           20.8310    21.9980     9.5080 n          1 UNL      -0.293800
      8 N1          23.0100    22.7740     9.6670 n          1 UNL      -0.274700
      9 H2          24.0190    22.5770     9.6100 hn         1 UNL       0.173400
     10 C           17.4980    20.6080     8.6280 c3         1 UNL       0.013300
     11 H3          16.9710    20.0410     7.8400 hc         1 UNL       0.035100
     12 C1          17.8600    19.6150     9.7590 c3         1 UNL       0.062600
     13 H4          17.0590    19.5640    10.5200 h1         1 UNL       0.059700
     14 C2          19.1490    20.1770    10.3890 c3         1 UNL      -0.002400
     15 H5          19.7220    19.3700    10.8750 hc         1 UNL       0.031300
     16 H6          18.9220    20.9160    11.1720 hc         1 UNL       0.031300
     17 C3          19.9170    20.8580     9.2260 cx         1 UNL       0.055700
     18 C4          18.8630    21.1100     8.0720 cx         1 UNL      -0.007700
     19 H7          18.8510    22.0800     7.5690 hc         1 UNL       0.032800
     20 C5          16.5390    21.7590     9.0360 c3         1 UNL       0.049700
     21 H8          16.2610    22.3770     8.1630 h1         1 UNL       0.056100
     22 H9          15.6070    21.3640     9.4680 h1         1 UNL       0.056100
     23 C6          22.1550    21.7860     9.4520 c          1 UNL       0.329800
     24 C7          20.0420    20.2300     7.7840 cx         1 UNL      -0.023400
     25 H10         19.9230    19.1530     7.6490 hc         1 UNL       0.029200
     26 H11         20.8120    20.6540     7.1350 hc         1 UNL       0.029200
     27 C8          22.6150    24.0140     9.9550 c          1 UNL       0.256800
     28 C9          21.1550    24.2980    10.0410 cc         1 UNL       0.030200
     29 C10         20.3320    23.2210     9.7980 cd         1 UNL       0.018000
     30 H12         19.2510    23.3580     9.8410 h4         1 UNL       0.081500
     31 C11         20.6490    25.6890    10.3740 c3         1 UNL      -0.033200
     32 H13         20.9500    26.4140     9.6010 hc         1 UNL       0.028000
     33 H14         19.5520    25.7270    10.4570 hc         1 UNL       0.028000
     34 H15         21.0640    26.0400    11.3330 hc         1 UNL       0.028000
@<TRIPOS>BOND
     1     1    20 1   
     2     1     2 1   
     3     3    12 1   
     4     3     4 1   
     5     5    23 2   
     6     6    27 2   
     7     7    17 1   
     8     7    23 1   
     9     7    29 1   
    10     8    23 1   
    11     8    27 1   
    12     8     9 1   
    13    10    12 1   
    14    10    18 1   
    15    10    20 1   
    16    10    11 1   
    17    12    14 1   
    18    12    13 1   
    19    14    17 1   
    20    14    15 1   
    21    14    16 1   
    22    17    18 1   
    23    17    24 1   
    24    18    24 1   
    25    18    19 1   
    26    20    21 1   
    27    20    22 1   
    28    24    25 1   
    29    24    26 1   
    30    27    28 1   
    31    28    29 2   
    32    28    31 1   
    33    29    30 1   
    34    31    32 1   
    35    31    33 1   
    36    31    34 1   
@<TRIPOS>SUBSTRUCTURE
     1 UNL         1 TEMP              0 ****  ****    0 ROOT
