MODEL 1
REMARK VINA RESULT:      -7.5      0.000      0.000
REMARK  7 active torsions:
REMARK  status: ('A' for Active; 'I' for Inactive)
REMARK    1  A    between atoms: N_1  and  C3_6 
REMARK    2  A    between atoms: C_2  and  C6_9 
REMARK    3  A    between atoms: C1_4  and  C12_17 
REMARK    4  A    between atoms: C2_5  and  C13_18 
REMARK    5  A    between atoms: C3_6  and  C4_7 
REMARK    6  A    between atoms: C21_29  and  N5_31 
REMARK    7  A    between atoms: N5_31  and  C22_33 
ROOT
ATOM      1  N   UNL d          35.637  -1.734  17.894  0.00  0.00    -0.331 N 
ATOM      2  C   UNL d          36.788  -1.899  17.194  0.00  0.00     0.111 A 
ATOM      3  N1  UNL d          36.719  -2.924  16.270  0.00  0.00    -0.232 NA
ATOM      4  C1  UNL d          35.389  -3.552  16.309  0.00  0.00     0.098 A 
ATOM      5  C2  UNL d          34.656  -2.783  17.356  0.00  0.00     0.095 A 
ENDROOT
BRANCH   5   6
ATOM      6  C13 UNL d          33.332  -2.849  18.107  0.00  0.00     0.106 A 
ATOM      7  C19 UNL d          32.174  -2.403  17.415  0.00  0.00     0.054 A 
ATOM      8  C20 UNL d          30.962  -2.437  18.143  0.00  0.00     0.139 A 
ATOM      9  N3  UNL d          30.911  -2.845  19.427  0.00  0.00    -0.075 NA
ATOM     10  C21 UNL d          32.069  -3.223  19.986  0.00  0.00     0.723 A 
ATOM     11  N4  UNL d          33.253  -3.237  19.375  0.00  0.00    -0.061 NA
BRANCH  10  12
ATOM     12  N5  UNL d          32.099  -3.630  21.278  0.00  0.00    -0.218 N 
ATOM     13  H25 UNL d          31.227  -3.616  21.826  0.00  0.00     0.178 HD
BRANCH  12  14
ATOM     14  C22 UNL d          33.319  -4.084  21.912  0.00  0.00     0.099 A 
ATOM     15  C23 UNL d          32.614  -3.947  23.258  0.00  0.00     0.028 A 
ATOM     16  C24 UNL d          33.867  -3.200  22.926  0.00  0.00     0.028 A 
ENDBRANCH  12  14
ENDBRANCH  10  12
ENDBRANCH   5   6
BRANCH   1  17
ATOM     17  C3  UNL d          35.481  -0.695  18.937  0.00  0.00     0.130 C 
BRANCH  17  18
ATOM     18  C4  UNL d          36.352  -0.943  20.163  0.00  0.00     0.016 C 
ATOM     19  C5  UNL d          36.438  -2.412  20.569  0.00  0.00     0.006 C 
ENDBRANCH  17  18
ENDBRANCH   1  17
BRANCH   4  20
ATOM     20  C12 UNL d          34.991  -4.669  15.405  0.00  0.00    -0.003 A 
ATOM     21  C14 UNL d          35.161  -6.016  15.803  0.00  0.00     0.039 A 
ATOM     22  C15 UNL d          34.816  -7.082  14.973  0.00  0.00     0.056 A 
ATOM     23  C16 UNL d          34.305  -6.831  13.672  0.00  0.00     0.055 A 
ATOM     24 Cl   UNL d          35.082  -8.651  15.608  0.00  0.00    -0.083 Cl
ATOM     25  C17 UNL d          34.110  -5.480  13.243  0.00  0.00     0.026 A 
ATOM     26 Cl1  UNL d          33.887  -8.100  12.575  0.00  0.00    -0.083 Cl
ATOM     27  C18 UNL d          34.468  -4.391  14.121  0.00  0.00     0.015 A 
ENDBRANCH   4  20
BRANCH   2  28
ATOM     28  C6  UNL d          37.942  -1.308  17.226  0.00  0.00     0.059 C 
ATOM     29  C7  UNL d          39.097  -2.109  17.920  0.00  0.00     0.040 C 
ATOM     30  C8  UNL d          40.464  -1.335  17.937  0.00  0.00     0.235 C 
ATOM     31  N2  UNL d          40.862  -0.863  16.572  0.00  0.00    -0.075 N 
ATOM     32  C9  UNL d          39.812  -0.046  15.931  0.00  0.00     0.235 C 
ATOM     33  C11 UNL d          42.143  -0.116  16.631  0.00  0.00     0.269 C 
ATOM     34  H12 UNL d          41.011  -1.681  15.997  0.00  0.00     0.279 HD
ATOM     35  C10 UNL d          38.433  -0.786  15.841  0.00  0.00     0.040 C 
ENDBRANCH   2  28
TORSDOF 7
ENDMDL
MODEL 2
REMARK VINA RESULT:      -7.4      1.313      1.539
REMARK  7 active torsions:
REMARK  status: ('A' for Active; 'I' for Inactive)
REMARK    1  A    between atoms: N_1  and  C3_6 
REMARK    2  A    between atoms: C_2  and  C6_9 
REMARK    3  A    between atoms: C1_4  and  C12_17 
REMARK    4  A    between atoms: C2_5  and  C13_18 
REMARK    5  A    between atoms: C3_6  and  C4_7 
REMARK    6  A    between atoms: C21_29  and  N5_31 
REMARK    7  A    between atoms: N5_31  and  C22_33 
ROOT
ATOM      1  N   UNL d          34.804  -1.470  16.902  0.00  0.00    -0.331 N 
ATOM      2  C   UNL d          35.814  -1.596  16.006  0.00  0.00     0.111 A 
ATOM      3  N1  UNL d          35.761  -2.777  15.292  0.00  0.00    -0.232 NA
ATOM      4  C1  UNL d          34.598  -3.573  15.714  0.00  0.00     0.098 A 
ATOM      5  C2  UNL d          33.946  -2.733  16.761  0.00  0.00     0.095 A 
ENDROOT
BRANCH   5   6
ATOM      6  C13 UNL d          32.819  -2.845  17.780  0.00  0.00     0.106 A 
ATOM      7  C19 UNL d          31.525  -2.433  17.361  0.00  0.00     0.054 A 
ATOM      8  C20 UNL d          30.502  -2.510  18.333  0.00  0.00     0.139 A 
ATOM      9  N3  UNL d          30.743  -2.926  19.593  0.00  0.00    -0.075 NA
ATOM     10  C21 UNL d          32.006  -3.269  19.884  0.00  0.00     0.723 A 
ATOM     11  N4  UNL d          33.028  -3.242  19.030  0.00  0.00    -0.061 NA
BRANCH  10  12
ATOM     12  N5  UNL d          32.328  -3.681  21.133  0.00  0.00    -0.218 N 
ATOM     13  H25 UNL d          32.020  -4.613  21.446  0.00  0.00     0.178 HD
BRANCH  12  14
ATOM     14  C22 UNL d          33.092  -2.853  22.042  0.00  0.00     0.099 A 
ATOM     15  C23 UNL d          32.782  -3.860  23.145  0.00  0.00     0.028 A 
ATOM     16  C24 UNL d          32.391  -2.419  23.237  0.00  0.00     0.028 A 
ENDBRANCH  12  14
ENDBRANCH  10  12
ENDBRANCH   5   6
BRANCH   1  17
ATOM     17  C3  UNL d          34.660  -0.284  17.779  0.00  0.00     0.130 C 
BRANCH  17  18
ATOM     18  C4  UNL d          35.724  -0.213  18.868  0.00  0.00     0.016 C 
ATOM     19  C5  UNL d          35.700  -1.397  19.830  0.00  0.00     0.006 C 
ENDBRANCH  17  18
ENDBRANCH   1  17
BRANCH   4  20
ATOM     20  C12 UNL d          34.246  -4.887  15.104  0.00  0.00    -0.003 A 
ATOM     21  C14 UNL d          33.715  -5.932  15.897  0.00  0.00     0.039 A 
ATOM     22  C15 UNL d          33.395  -7.179  15.360  0.00  0.00     0.056 A 
ATOM     23  C16 UNL d          33.630  -7.439  13.984  0.00  0.00     0.055 A 
ATOM     24 Cl   UNL d          32.758  -8.332  16.455  0.00  0.00    -0.083 Cl
ATOM     25  C17 UNL d          34.155  -6.399  13.152  0.00  0.00     0.026 A 
ATOM     26 Cl1  UNL d          33.289  -8.969  13.254  0.00  0.00    -0.083 Cl
ATOM     27  C18 UNL d          34.474  -5.114  13.727  0.00  0.00     0.015 A 
ENDBRANCH   4  20
BRANCH   2  28
ATOM     28  C6  UNL d          36.828  -0.849  15.695  0.00  0.00     0.059 C 
ATOM     29  C7  UNL d          38.196  -1.256  16.345  0.00  0.00     0.040 C 
ATOM     30  C8  UNL d          39.380  -0.306  15.939  0.00  0.00     0.235 C 
ATOM     31  N2  UNL d          39.497  -0.153  14.454  0.00  0.00    -0.075 N 
ATOM     32  C9  UNL d          38.236   0.299  13.833  0.00  0.00     0.235 C 
ATOM     33  C11 UNL d          40.609   0.770  14.109  0.00  0.00     0.269 C 
ATOM     34  H12 UNL d          39.724  -1.060  14.069  0.00  0.00     0.279 HD
ATOM     35  C10 UNL d          37.024  -0.639  14.163  0.00  0.00     0.040 C 
ENDBRANCH   2  28
TORSDOF 7
ENDMDL
MODEL 3
REMARK VINA RESULT:      -6.9      3.340      7.574
REMARK  7 active torsions:
REMARK  status: ('A' for Active; 'I' for Inactive)
REMARK    1  A    between atoms: N_1  and  C3_6 
REMARK    2  A    between atoms: C_2  and  C6_9 
REMARK    3  A    between atoms: C1_4  and  C12_17 
REMARK    4  A    between atoms: C2_5  and  C13_18 
REMARK    5  A    between atoms: C3_6  and  C4_7 
REMARK    6  A    between atoms: C21_29  and  N5_31 
REMARK    7  A    between atoms: N5_31  and  C22_33 
ROOT
ATOM      1  N   UNL d          32.729  -3.437  20.726  0.00  0.00    -0.331 N 
ATOM      2  C   UNL d          33.209  -3.052  21.935  0.00  0.00     0.111 A 
ATOM      3  N1  UNL d          34.565  -2.785  21.921  0.00  0.00    -0.232 NA
ATOM      4  C1  UNL d          35.107  -2.995  20.569  0.00  0.00     0.098 A 
ATOM      5  C2  UNL d          33.922  -3.411  19.764  0.00  0.00     0.095 A 
ENDROOT
BRANCH   5   6
ATOM      6  C13 UNL d          33.616  -3.939  18.368  0.00  0.00     0.106 A 
ATOM      7  C19 UNL d          33.940  -3.094  17.272  0.00  0.00     0.054 A 
ATOM      8  C20 UNL d          33.613  -3.588  15.988  0.00  0.00     0.139 A 
ATOM      9  N3  UNL d          33.006  -4.779  15.814  0.00  0.00    -0.075 NA
ATOM     10  C21 UNL d          32.728  -5.482  16.920  0.00  0.00     0.723 A 
ATOM     11  N4  UNL d          33.011  -5.104  18.166  0.00  0.00    -0.061 NA
BRANCH  10  12
ATOM     12  N5  UNL d          32.104  -6.681  16.825  0.00  0.00    -0.218 N 
ATOM     13  H25 UNL d          31.132  -6.764  17.155  0.00  0.00     0.178 HD
BRANCH  12  14
ATOM     14  C22 UNL d          32.761  -7.847  16.273  0.00  0.00     0.099 A 
ATOM     15  C23 UNL d          31.617  -8.693  16.824  0.00  0.00     0.028 A 
ATOM     16  C24 UNL d          33.043  -8.914  17.216  0.00  0.00     0.028 A 
ENDBRANCH  12  14
ENDBRANCH  10  12
ENDBRANCH   5   6
BRANCH   1  17
ATOM     17  C3  UNL d          31.304  -3.774  20.506  0.00  0.00     0.130 C 
BRANCH  17  18
ATOM     18  C4  UNL d          30.623  -2.861  19.493  0.00  0.00     0.016 C 
ATOM     19  C5  UNL d          29.099  -2.947  19.515  0.00  0.00     0.006 C 
ENDBRANCH  17  18
ENDBRANCH   1  17
BRANCH   4  20
ATOM     20  C12 UNL d          36.538  -2.756  20.221  0.00  0.00    -0.003 A 
ATOM     21  C14 UNL d          37.158  -3.482  19.177  0.00  0.00     0.039 A 
ATOM     22  C15 UNL d          38.498  -3.296  18.840  0.00  0.00     0.056 A 
ATOM     23  C16 UNL d          39.292  -2.376  19.575  0.00  0.00     0.055 A 
ATOM     24 Cl   UNL d          39.093  -4.251  17.549  0.00  0.00    -0.083 Cl
ATOM     25  C17 UNL d          38.692  -1.617  20.630  0.00  0.00     0.026 A 
ATOM     26 Cl1  UNL d          40.967  -2.114  19.238  0.00  0.00    -0.083 Cl
ATOM     27  C18 UNL d          37.300  -1.821  20.957  0.00  0.00     0.015 A 
ENDBRANCH   4  20
BRANCH   2  28
ATOM     28  C6  UNL d          32.665  -2.901  23.103  0.00  0.00     0.059 C 
ATOM     29  C7  UNL d          33.535  -3.366  24.323  0.00  0.00     0.040 C 
ATOM     30  C8  UNL d          32.816  -3.170  25.706  0.00  0.00     0.235 C 
ATOM     31  N2  UNL d          32.314  -1.770  25.886  0.00  0.00    -0.075 N 
ATOM     32  C9  UNL d          31.435  -1.340  24.781  0.00  0.00     0.235 C 
ATOM     33  C11 UNL d          31.620  -1.628  27.192  0.00  0.00     0.269 C 
ATOM     34  H12 UNL d          33.117  -1.156  25.900  0.00  0.00     0.279 HD
ATOM     35  C10 UNL d          32.117  -1.467  23.375  0.00  0.00     0.040 C 
ENDBRANCH   2  28
TORSDOF 7
ENDMDL
