@<TRIPOS>MOLECULE
LIGAND
   27    28     1     0     0
SMALL
No Charge or Current Charge


@<TRIPOS>ATOM
      1 N           14.5300    10.9590    39.3960 nb         1 UNL      -0.263000
      2 C           14.8480    11.5340    40.5560 ca         1 UNL       0.029200
      3 H           14.1780    11.3960    41.4040 h4         1 UNL       0.083200
      4 C1          15.9830    12.2950    40.7340 ca         1 UNL      -0.042800
      5 C2          16.8250    12.4490    39.6380 ca         1 UNL      -0.057300
      6 H1          17.7270    13.0530    39.7280 ha         1 UNL       0.062100
      7 C3          16.5230    11.8390    38.4340 ca         1 UNL      -0.043400
      8 H2          17.1870    11.9330    37.5750 ha         1 UNL       0.063300
      9 C4          15.3520    11.1050    38.3520 ca         1 UNL       0.027600
     10 H3          15.0920    10.6310    37.4060 h4         1 UNL       0.082900
     11 N1          17.6410    13.4010    42.2340 n4         1 UNL       0.382400
     12 H4          17.8870    13.9140    41.3990 hn         1 UNL      -0.081400
     13 C5          16.2700    12.9520    42.0610 c3         1 UNL      -0.050900
     14 H5          16.0220    12.2710    42.8900 hx         1 UNL       0.014300
     15 C6          15.4670    14.2580    42.2210 c3         1 UNL      -0.062900
     16 H6          14.4240    14.0730    42.5180 hc         1 UNL       0.025200
     17 H7          15.4210    14.7920    41.2540 hc         1 UNL       0.025200
     18 C7          16.2810    15.0920    43.2200 c3         1 UNL      -0.069200
     19 C8          17.6370    14.3510    43.3350 c3         1 UNL      -0.090200
     20 H8          18.5000    14.9920    43.1570 hx         1 UNL       0.005900
     21 H9          17.7320    13.8150    44.2900 hx         1 UNL       0.005900
     22 C9          18.6530    12.3120    42.3850 c3         1 UNL      -0.102400
     23 H10         19.6190    12.7970    42.4820 hx         1 UNL       0.002400
     24 H11         18.4260    11.7310    43.2870 hx         1 UNL       0.002400
     25 H12         18.6390    11.6590    41.5060 hx         1 UNL       0.002400
     26 H13         15.7860    15.1590    44.2030 hc         1 UNL       0.024700
     27 H14         16.3970    16.1320    42.8710 hc         1 UNL       0.024700
@<TRIPOS>BOND
     1     1     2 ar  
     2     1     9 ar  
     3     2     4 ar  
     4     2     3 1   
     5     4     5 ar  
     6     4    13 1   
     7     5     7 ar  
     8     5     6 1   
     9     7     9 ar  
    10     7     8 1   
    11     9    10 1   
    12    11    13 1   
    13    11    19 1   
    14    11    22 1   
    15    11    12 1   
    16    13    15 1   
    17    13    14 1   
    18    15    18 1   
    19    15    16 1   
    20    15    17 1   
    21    18    19 1   
    22    19    20 1   
    23    19    21 1   
    24    22    23 1   
    25    22    24 1   
    26    22    25 1   
    27    18    26 1   
    28    18    27 1   
@<TRIPOS>SUBSTRUCTURE
     1 UNL         1 TEMP              0 ****  ****    0 ROOT
