@<TRIPOS>MOLECULE
MOL
   64    68     1     0     0
SMALL
No Charge or Current Charge


@<TRIPOS>ATOM
      1 N1          35.6370    -1.7340    17.8940 na         1 MOL       0.000000
      2 C1          36.7880    -1.8990    17.1940 cc         1 MOL       0.000000
      3 N2          36.7190    -2.9240    16.2700 nc         1 MOL       0.000000
      4 C2          35.3890    -3.5520    16.3090 cc         1 MOL       0.000000
      5 C3          34.6560    -2.7830    17.3560 cd         1 MOL       0.000000
      6 C4          33.3320    -2.8490    18.1070 ca         1 MOL       0.000000
      7 C5          32.1740    -2.4030    17.4150 ca         1 MOL       0.000000
      8 C6          30.9620    -2.4370    18.1430 ca         1 MOL       0.000000
      9 N3          30.9110    -2.8450    19.4270 nb         1 MOL       0.000000
     10 C7          32.0690    -3.2230    19.9860 ca         1 MOL       0.000000
     11 N4          33.2530    -3.2370    19.3750 nb         1 MOL       0.000000
     12 N5          32.0990    -3.6300    21.2780 nh         1 MOL       0.000000
     13 H1          31.2270    -3.6160    21.8260 hn         1 MOL       0.000000
     14 C8          33.3190    -4.0840    21.9120 cx         1 MOL       0.000000
     15 C9          32.6140    -3.9470    23.2580 cx         1 MOL       0.000000
     16 C10         33.8670    -3.2000    22.9260 cx         1 MOL       0.000000
     17 C11         35.4810    -0.6950    18.9370 c3         1 MOL       0.000000
     18 C12         36.3520    -0.9430    20.1630 c3         1 MOL       0.000000
     19 C13         36.4380    -2.4120    20.5690 c3         1 MOL       0.000000
     20 C14         34.9910    -4.6690    15.4050 ca         1 MOL       0.000000
     21 C15         35.1610    -6.0160    15.8030 ca         1 MOL       0.000000
     22 C16         34.8160    -7.0820    14.9730 ca         1 MOL       0.000000
     23 C17         34.3050    -6.8310    13.6720 ca         1 MOL       0.000000
     24 Cl1         35.0820    -8.6510    15.6080 cl         1 MOL       0.000000
     25 C18         34.1100    -5.4800    13.2430 ca         1 MOL       0.000000
     26 Cl2         33.8870    -8.1000    12.5750 cl         1 MOL       0.000000
     27 C19         34.4680    -4.3910    14.1210 ca         1 MOL       0.000000
     28 C20         37.9420    -1.3080    17.2260 c3         1 MOL       0.000000
     29 C21         39.0970    -2.1090    17.9200 c3         1 MOL       0.000000
     30 C22         40.4640    -1.3350    17.9370 c3         1 MOL       0.000000
     31 N6          40.8620    -0.8630    16.5720 n4         1 MOL       0.000000
     32 C23         39.8120    -0.0460    15.9310 c3         1 MOL       0.000000
     33 C24         42.1430    -0.1160    16.6310 c3         1 MOL       0.000000
     34 H2          41.0110    -1.6810    15.9970 hn         1 MOL       0.000000
     35 C25         38.4330    -0.7860    15.8410 c3         1 MOL       0.000000
     36 H3          32.2150    -2.0730    16.4380 ha         1 MOL       0.000000
     37 H4          30.0900    -2.1400    17.6770 h4         1 MOL       0.000000
     38 H5          33.8750    -4.6900    21.2270 h1         1 MOL       0.000000
     39 H6          32.6330    -4.7510    23.9640 hc         1 MOL       0.000000
     40 H7          31.6290    -3.6920    23.5900 hc         1 MOL       0.000000
     41 H8          33.8280    -2.1410    22.7810 hc         1 MOL       0.000000
     42 H9          34.8250    -3.1100    23.3950 hc         1 MOL       0.000000
     43 H10         34.4570    -0.6730    19.2460 h1         1 MOL       0.000000
     44 H11         35.7900     0.2360    18.5090 h1         1 MOL       0.000000
     45 H12         35.9460    -0.3890    20.9830 hc         1 MOL       0.000000
     46 H13         37.3440    -0.6300    19.9100 hc         1 MOL       0.000000
     47 H14         35.4630    -2.7670    20.8310 hc         1 MOL       0.000000
     48 H15         37.0920    -2.5120    21.4100 hc         1 MOL       0.000000
     49 H16         36.8190    -2.9870    19.7500 hc         1 MOL       0.000000
     50 H17         35.5530    -6.2160    16.7370 ha         1 MOL       0.000000
     51 H18         33.7150    -5.2850    12.3100 ha         1 MOL       0.000000
     52 H19         34.3430    -3.4140    13.8130 ha         1 MOL       0.000000
     53 H20         37.7270    -0.4670    17.8520 hc         1 MOL       0.000000
     54 H21         39.2350    -3.0310    17.3950 hc         1 MOL       0.000000
     55 H22         38.8080    -2.2660    18.9380 hc         1 MOL       0.000000
     56 H23         40.3720    -0.4860    18.5820 hx         1 MOL       0.000000
     57 H24         41.2190    -2.0080    18.2860 hx         1 MOL       0.000000
     58 H25         39.6820     0.8510    16.5000 hx         1 MOL       0.000000
     59 H26         40.1320     0.1600    14.9310 hx         1 MOL       0.000000
     60 H27         42.4100     0.2120    15.6480 hx         1 MOL       0.000000
     61 H28         42.9110    -0.7550    17.0150 hx         1 MOL       0.000000
     62 H29         42.0320     0.7330    17.2730 hx         1 MOL       0.000000
     63 H30         38.5330    -1.6190    15.1770 hc         1 MOL       0.000000
     64 H31         37.7100    -0.0820    15.4850 hc         1 MOL       0.000000
@<TRIPOS>BOND
     1     1    17 1   
     2     2    28 1   
     3     2     1 1   
     4     3     4 1   
     5     3     2 2   
     6     4     5 2   
     7     5     1 1   
     8     5     6 1   
     9     6    11 ar  
    10     7     6 ar  
    11     7     8 ar  
    12     7    36 1   
    13     8     9 ar  
    14     8    37 1   
    15     9    10 ar  
    16    10    12 1   
    17    11    10 ar  
    18    12    13 1   
    19    12    14 1   
    20    14    16 1   
    21    14    15 1   
    22    14    38 1   
    23    15    39 1   
    24    15    40 1   
    25    16    15 1   
    26    16    41 1   
    27    16    42 1   
    28    17    18 1   
    29    17    43 1   
    30    17    44 1   
    31    18    19 1   
    32    18    45 1   
    33    18    46 1   
    34    19    47 1   
    35    19    48 1   
    36    19    49 1   
    37    20    21 ar  
    38    20     4 1   
    39    21    50 1   
    40    22    24 1   
    41    22    21 ar  
    42    23    22 ar  
    43    25    23 ar  
    44    25    27 ar  
    45    25    51 1   
    46    26    23 1   
    47    27    20 ar  
    48    27    52 1   
    49    28    29 1   
    50    28    53 1   
    51    29    30 1   
    52    29    54 1   
    53    29    55 1   
    54    30    56 1   
    55    30    57 1   
    56    31    33 1   
    57    31    30 1   
    58    32    31 1   
    59    32    58 1   
    60    32    59 1   
    61    33    60 1   
    62    33    61 1   
    63    33    62 1   
    64    34    31 1   
    65    35    32 1   
    66    35    28 1   
    67    35    63 1   
    68    35    64 1   
@<TRIPOS>SUBSTRUCTURE
     1 MOL         1 TEMP              0 ****  ****    0 ROOT
