MODEL 1
REMARK VINA RESULT:      -8.3      0.000      0.000
REMARK  7 active torsions:
REMARK  status: ('A' for Active; 'I' for Inactive)
REMARK    1  A    between atoms: N_7  and  C12_15 
REMARK    2  A    between atoms: C6_8  and  C9_11 
REMARK       I    between atoms: C9_11  and  N1_12 
REMARK    3  A    between atoms: N1_12  and  C10_13 
REMARK    4  A    between atoms: C10_13  and  C11_14 
REMARK    5  A    between atoms: C12_15  and  C13_16 
REMARK    6  A    between atoms: C17_20  and  C24_27 
REMARK    7  A    between atoms: C24_27  and  N2_28 
ROOT
ATOM      1  C   UNL d         -17.525  -5.715  22.108  0.00  0.00     0.003 A 
ATOM      2  C1  UNL d         -16.850  -5.668  20.879  0.00  0.00     0.030 A 
ATOM      3  C2  UNL d         -16.445  -4.422  20.320  0.00  0.00     0.046 A 
ATOM      4  C3  UNL d         -16.662  -3.203  20.959  0.00  0.00    -0.001 A 
ATOM      5  C4  UNL d         -17.366  -3.250  22.234  0.00  0.00    -0.049 A 
ATOM      6  C5  UNL d         -17.792  -4.495  22.772  0.00  0.00     0.007 A 
ATOM      7  N   UNL d         -15.878  -4.184  19.074  0.00  0.00    -0.337 N 
ATOM      8  C6  UNL d         -15.706  -2.812  18.976  0.00  0.00     0.104 A 
ATOM      9  C7  UNL d         -16.149  -2.141  20.184  0.00  0.00     0.049 A 
ATOM     10  C8  UNL d         -17.615  -2.015  23.001  0.00  0.00     0.049 C 
ENDROOT
BRANCH   7  11
ATOM     11  C12 UNL d         -15.690  -5.209  18.039  0.00  0.00     0.168 C 
BRANCH  11  12
ATOM     12  C13 UNL d         -14.250  -5.583  17.795  0.00  0.00    -0.039 A 
ATOM     13  C14 UNL d         -13.633  -5.633  16.527  0.00  0.00     0.009 A 
ATOM     14  C15 UNL d         -12.340  -6.175  16.394  0.00  0.00     0.002 A 
ATOM     15  C16 UNL d         -11.678  -6.628  17.552  0.00  0.00     0.015 A 
ATOM     16  C17 UNL d         -12.286  -6.501  18.823  0.00  0.00     0.007 A 
ATOM     17  C18 UNL d         -13.568  -5.982  18.935  0.00  0.00     0.024 A 
BRANCH  16  18
ATOM     18  C24 UNL d         -11.638  -6.856  20.073  0.00  0.00     0.102 C 
ATOM     19  N3  UNL d         -11.149  -8.089  20.135  0.00  0.00    -0.385 N 
ATOM     20  H18 UNL d         -10.676  -8.412  20.990  0.00  0.00     0.157 HD
ATOM     21  H19 UNL d         -11.243  -8.721  19.326  0.00  0.00     0.157 HD
BRANCH  18  22
ATOM     22  N2  UNL d         -11.490  -5.995  21.082  0.00  0.00    -0.385 N 
ATOM     23  H16 UNL d         -11.926  -5.063  21.032  0.00  0.00     0.157 HD
ATOM     24  H17 UNL d         -10.940  -6.262  21.911  0.00  0.00     0.157 HD
ENDBRANCH  18  22
ENDBRANCH  16  18
ENDBRANCH  11  12
ENDBRANCH   7  11
BRANCH   8  25
ATOM     25  C9  UNL d         -15.193  -2.143  17.834  0.00  0.00     0.268 C 
ATOM     26  N1  UNL d         -16.071  -1.621  16.944  0.00  0.00    -0.351 N 
ATOM     27  H7  UNL d         -17.084  -1.707  17.105  0.00  0.00     0.163 HD
ATOM     28  O   UNL d         -13.977  -2.057  17.644  0.00  0.00    -0.266 OA
BRANCH  26  29
ATOM     29  C10 UNL d         -15.574  -0.934  15.751  0.00  0.00     0.161 C 
BRANCH  29  30
ATOM     30  C11 UNL d         -15.479   0.589  15.813  0.00  0.00    -0.037 A 
ATOM     31  C19 UNL d         -15.362   1.322  14.622  0.00  0.00     0.032 A 
ATOM     32  C20 UNL d         -15.150   2.711  14.624  0.00  0.00     0.036 A 
ATOM     33  C21 UNL d         -15.074   3.382  15.855  0.00  0.00     0.047 A 
ATOM     34 Cl   UNL d         -14.893   3.564  13.110  0.00  0.00    -0.084 Cl
ATOM     35  C22 UNL d         -15.194   2.674  17.067  0.00  0.00     0.036 A 
ATOM     36  C23 UNL d         -15.407   1.279  17.032  0.00  0.00     0.032 A 
ATOM     37 Cl1  UNL d         -15.014   3.488  18.620  0.00  0.00    -0.084 Cl
ENDBRANCH  29  30
ENDBRANCH  26  29
ENDBRANCH   8  25
TORSDOF 7
ENDMDL
MODEL 2
REMARK VINA RESULT:      -8.2      2.293      2.786
REMARK  7 active torsions:
REMARK  status: ('A' for Active; 'I' for Inactive)
REMARK    1  A    between atoms: N_7  and  C12_15 
REMARK    2  A    between atoms: C6_8  and  C9_11 
REMARK       I    between atoms: C9_11  and  N1_12 
REMARK    3  A    between atoms: N1_12  and  C10_13 
REMARK    4  A    between atoms: C10_13  and  C11_14 
REMARK    5  A    between atoms: C12_15  and  C13_16 
REMARK    6  A    between atoms: C17_20  and  C24_27 
REMARK    7  A    between atoms: C24_27  and  N2_28 
ROOT
ATOM      1  C   UNL d         -17.469  -5.290  22.374  0.00  0.00     0.003 A 
ATOM      2  C1  UNL d         -16.826  -5.375  21.130  0.00  0.00     0.030 A 
ATOM      3  C2  UNL d         -16.448  -4.195  20.426  0.00  0.00     0.046 A 
ATOM      4  C3  UNL d         -16.662  -2.914  20.932  0.00  0.00    -0.001 A 
ATOM      5  C4  UNL d         -17.334  -2.826  22.223  0.00  0.00    -0.049 A 
ATOM      6  C5  UNL d         -17.732  -4.006  22.906  0.00  0.00     0.007 A 
ATOM      7  N   UNL d         -15.916  -4.093  19.147  0.00  0.00    -0.337 N 
ATOM      8  C6  UNL d         -15.760  -2.739  18.893  0.00  0.00     0.104 A 
ATOM      9  C7  UNL d         -16.181  -1.942  20.031  0.00  0.00     0.049 A 
ATOM     10  C8  UNL d         -17.576  -1.515  22.854  0.00  0.00     0.049 C 
ENDROOT
BRANCH   7  11
ATOM     11  C12 UNL d         -15.743  -5.225  18.227  0.00  0.00     0.168 C 
BRANCH  11  12
ATOM     12  C13 UNL d         -14.305  -5.563  17.927  0.00  0.00    -0.039 A 
ATOM     13  C14 UNL d         -13.722  -5.539  16.642  0.00  0.00     0.009 A 
ATOM     14  C15 UNL d         -12.425  -6.051  16.449  0.00  0.00     0.002 A 
ATOM     15  C16 UNL d         -11.725  -6.552  17.564  0.00  0.00     0.015 A 
ATOM     16  C17 UNL d         -12.301  -6.499  18.855  0.00  0.00     0.007 A 
ATOM     17  C18 UNL d         -13.587  -6.008  19.027  0.00  0.00     0.024 A 
BRANCH  16  18
ATOM     18  C24 UNL d         -11.615  -6.907  20.069  0.00  0.00     0.102 C 
ATOM     19  N3  UNL d         -11.585  -6.004  21.041  0.00  0.00    -0.385 N 
ATOM     20  H18 UNL d         -11.116  -6.222  21.931  0.00  0.00     0.157 HD
ATOM     21  H19 UNL d         -12.032  -5.086  20.904  0.00  0.00     0.157 HD
BRANCH  18  22
ATOM     22  N2  UNL d         -11.090  -8.124  20.230  0.00  0.00    -0.385 N 
ATOM     23  H16 UNL d         -11.408  -8.904  19.638  0.00  0.00     0.157 HD
ATOM     24  H17 UNL d         -10.368  -8.283  20.947  0.00  0.00     0.157 HD
ENDBRANCH  18  22
ENDBRANCH  16  18
ENDBRANCH  11  12
ENDBRANCH   7  11
BRANCH   8  25
ATOM     25  C9  UNL d         -15.284  -2.197  17.671  0.00  0.00     0.268 C 
ATOM     26  N1  UNL d         -16.141  -2.115  16.624  0.00  0.00    -0.351 N 
ATOM     27  H7  UNL d         -17.114  -2.435  16.726  0.00  0.00     0.163 HD
ATOM     28  O   UNL d         -14.112  -1.829  17.557  0.00  0.00    -0.266 OA
BRANCH  26  29
ATOM     29  C10 UNL d         -15.677  -1.570  15.348  0.00  0.00     0.161 C 
BRANCH  29  30
ATOM     30  C11 UNL d         -16.739  -1.263  14.294  0.00  0.00    -0.037 A 
ATOM     31  C19 UNL d         -16.399  -0.484  13.177  0.00  0.00     0.032 A 
ATOM     32  C20 UNL d         -17.360  -0.070  12.241  0.00  0.00     0.036 A 
ATOM     33  C21 UNL d         -18.696  -0.466  12.423  0.00  0.00     0.047 A 
ATOM     34 Cl   UNL d         -16.904   1.001  10.925  0.00  0.00    -0.084 Cl
ATOM     35  C22 UNL d         -19.067  -1.252  13.531  0.00  0.00     0.036 A 
ATOM     36  C23 UNL d         -18.077  -1.653  14.454  0.00  0.00     0.032 A 
ATOM     37 Cl1  UNL d         -20.752  -1.683  13.820  0.00  0.00    -0.084 Cl
ENDBRANCH  29  30
ENDBRANCH  26  29
ENDBRANCH   8  25
TORSDOF 7
ENDMDL
MODEL 3
REMARK VINA RESULT:      -8.0      3.966      6.747
REMARK  7 active torsions:
REMARK  status: ('A' for Active; 'I' for Inactive)
REMARK    1  A    between atoms: N_7  and  C12_15 
REMARK    2  A    between atoms: C6_8  and  C9_11 
REMARK       I    between atoms: C9_11  and  N1_12 
REMARK    3  A    between atoms: N1_12  and  C10_13 
REMARK    4  A    between atoms: C10_13  and  C11_14 
REMARK    5  A    between atoms: C12_15  and  C13_16 
REMARK    6  A    between atoms: C17_20  and  C24_27 
REMARK    7  A    between atoms: C24_27  and  N2_28 
ROOT
ATOM      1  C   UNL d         -18.294   0.260  23.825  0.00  0.00     0.003 A 
ATOM      2  C1  UNL d         -17.567  -0.727  23.144  0.00  0.00     0.030 A 
ATOM      3  C2  UNL d         -17.465  -0.706  21.723  0.00  0.00     0.046 A 
ATOM      4  C3  UNL d         -18.045   0.293  20.942  0.00  0.00    -0.001 A 
ATOM      5  C4  UNL d         -18.804   1.317  21.648  0.00  0.00    -0.049 A 
ATOM      6  C5  UNL d         -18.924   1.273  23.064  0.00  0.00     0.007 A 
ATOM      7  N   UNL d         -16.890  -1.656  20.890  0.00  0.00    -0.337 N 
ATOM      8  C6  UNL d         -17.081  -1.206  19.592  0.00  0.00     0.104 A 
ATOM      9  C7  UNL d         -17.775   0.067  19.576  0.00  0.00     0.049 A 
ATOM     10  C8  UNL d         -19.428   2.431  20.910  0.00  0.00     0.049 C 
ENDROOT
BRANCH   7  11
ATOM     11  C12 UNL d         -16.361  -2.948  21.345  0.00  0.00     0.168 C 
BRANCH  11  12
ATOM     12  C13 UNL d         -17.422  -3.961  21.692  0.00  0.00    -0.039 A 
ATOM     13  C14 UNL d         -17.512  -4.645  22.924  0.00  0.00     0.009 A 
ATOM     14  C15 UNL d         -18.427  -5.705  23.074  0.00  0.00     0.002 A 
ATOM     15  C16 UNL d         -19.259  -6.037  21.986  0.00  0.00     0.015 A 
ATOM     16  C17 UNL d         -19.201  -5.290  20.786  0.00  0.00     0.007 A 
ATOM     17  C18 UNL d         -18.282  -4.260  20.646  0.00  0.00     0.024 A 
BRANCH  16  18
ATOM     18  C24 UNL d         -20.084  -5.505  19.652  0.00  0.00     0.102 C 
ATOM     19  N3  UNL d         -19.928  -4.663  18.638  0.00  0.00    -0.385 N 
ATOM     20  H18 UNL d         -20.518  -4.753  17.799  0.00  0.00     0.157 HD
ATOM     21  H19 UNL d         -19.216  -3.920  18.690  0.00  0.00     0.157 HD
BRANCH  18  22
ATOM     22  N2  UNL d         -20.961  -6.509  19.598  0.00  0.00    -0.385 N 
ATOM     23  H16 UNL d         -21.795  -6.433  18.997  0.00  0.00     0.157 HD
ATOM     24  H17 UNL d         -20.806  -7.361  20.156  0.00  0.00     0.157 HD
ENDBRANCH  18  22
ENDBRANCH  16  18
ENDBRANCH  11  12
ENDBRANCH   7  11
BRANCH   8  25
ATOM     25  C9  UNL d         -16.680  -1.912  18.428  0.00  0.00     0.268 C 
ATOM     26  N1  UNL d         -15.399  -1.782  18.003  0.00  0.00    -0.351 N 
ATOM     27  H7  UNL d         -14.740  -1.187  18.523  0.00  0.00     0.163 HD
ATOM     28  O   UNL d         -17.483  -2.612  17.804  0.00  0.00    -0.266 OA
BRANCH  26  29
ATOM     29  C10 UNL d         -14.958  -2.490  16.801  0.00  0.00     0.161 C 
BRANCH  29  30
ATOM     30  C11 UNL d         -14.205  -3.803  17.002  0.00  0.00    -0.037 A 
ATOM     31  C19 UNL d         -14.497  -4.602  18.119  0.00  0.00     0.032 A 
ATOM     32  C20 UNL d         -13.754  -5.756  18.419  0.00  0.00     0.036 A 
ATOM     33  C21 UNL d         -12.704  -6.126  17.563  0.00  0.00     0.047 A 
ATOM     34 Cl   UNL d         -14.084  -6.656  19.892  0.00  0.00    -0.084 Cl
ATOM     35  C22 UNL d         -12.391  -5.348  16.432  0.00  0.00     0.036 A 
ATOM     36  C23 UNL d         -13.156  -4.194  16.156  0.00  0.00     0.032 A 
ATOM     37 Cl1  UNL d         -11.021  -5.751  15.398  0.00  0.00    -0.084 Cl
ENDBRANCH  29  30
ENDBRANCH  26  29
ENDBRANCH   8  25
TORSDOF 7
ENDMDL
