@<TRIPOS>MOLECULE
MOL
   59    60     1     0     0
SMALL
No Charge or Current Charge


@<TRIPOS>ATOM
      1 N1          10.7360   139.6240    43.8080 n2         1 MOL       0.000000
      2 N2          14.5890   138.4280    44.5290 na         1 MOL       0.000000
      3 C1          13.2630   138.7210    44.4250 cc         1 MOL       0.000000
      4 N3          12.1090   138.1190    45.0730 nh         1 MOL       0.000000
      5 C2          10.8760   138.6230    44.7680 c2         1 MOL       0.000000
      6 C3          11.7810   140.2140    43.1470 c3         1 MOL       0.000000
      7 C4          13.0980   139.8040    43.4390 cd         1 MOL       0.000000
      8 N4          14.3540   140.1000    43.0060 nd         1 MOL       0.000000
      9 C5          15.2160   139.2850    43.6690 cc         1 MOL       0.000000
     10 N5           9.7500   138.1010    45.3470 nh         1 MOL       0.000000
     11 H1           9.2620   138.5820    46.1160 hn         1 MOL       0.000000
     12 C6           9.2800   136.8230    44.8120 c1         1 MOL       0.000000
     13 H2           9.6700   136.7650    43.7810 ha         1 MOL       0.000000
     14 C7           7.7830   136.7770    44.4420 c3         1 MOL       0.000000
     15 C8           6.8400   136.7460    45.6710 c3         1 MOL       0.000000
     16 H3           6.5120   135.7140    45.8820 hc         1 MOL       0.000000
     17 H4           7.3260   137.1310    46.5800 hc         1 MOL       0.000000
     18 H5           5.9330   137.3450    45.4840 hc         1 MOL       0.000000
     19 C9           7.4180   135.8270    43.3090 c3         1 MOL       0.000000
     20 H6           7.4680   136.3510    42.3380 hc         1 MOL       0.000000
     21 H7           8.1290   134.9870    43.2340 hc         1 MOL       0.000000
     22 H8           6.4000   135.4180    43.4020 hc         1 MOL       0.000000
     23 C10          9.8690   135.5640    45.4750 c3         1 MOL       0.000000
     24 O1          11.0480   135.2370    44.7890 oh         1 MOL       0.000000
     25 H9          11.2850   134.2500    44.9650 ho         1 MOL       0.000000
     26 N6          11.6030   141.2100    42.2120 nh         1 MOL       0.000000
     27 H10         11.7350   142.1840    42.5170 hn         1 MOL       0.000000
     28 C11         11.2640   140.9930    40.9080 ca         1 MOL       0.000000
     29 C12         11.4210   139.7060    40.3550 ca         1 MOL       0.000000
     30 C13         11.1280   139.4750    39.0190 ca         1 MOL       0.000000
     31 C14         10.6830   140.5380    38.2110 ca         1 MOL       0.000000
     32 C15         10.5520   141.9030    38.7950 ca         1 MOL       0.000000
     33 Cl1         10.1020   143.0970    37.9660 cl         1 MOL       0.000000
     34 C16         10.8440   142.0610    40.1410 ca         1 MOL       0.000000
     35 C17         10.3720   140.3070    36.7700 c          1 MOL       0.000000
     36 O2           9.2220   139.9800    36.4330 oh         1 MOL       0.000000
     37 O3          11.2590   140.4330    35.9120 o          1 MOL       0.000000
     38 C18         15.3140   137.4950    45.4300 c3         1 MOL       0.000000
     39 C19         15.2240   136.1320    44.7680 c3         1 MOL       0.000000
     40 C20         16.7850   137.8060    45.6720 c3         1 MOL       0.000000
     41 H11         12.2120   137.3750    45.7090 hn         1 MOL       0.000000
     42 H12         10.7460   140.1760    42.8800 h2         1 MOL       0.000000
     43 H13         16.2390   139.3110    43.5370 h5         1 MOL       0.000000
     44 H14          7.7810   137.7730    44.0500 hc         1 MOL       0.000000
     45 H15          8.7390   136.4540    44.7980 hc         1 MOL       0.000000
     46 H16          9.6230   136.5890    45.2920 h1         1 MOL       0.000000
     47 H17         10.0140   135.4130    46.5250 h1         1 MOL       0.000000
     48 H18          9.0710   134.9390    45.1320 h1         1 MOL       0.000000
     49 H19         11.7560   138.9310    40.9480 ha         1 MOL       0.000000
     50 H20         11.2360   138.5290    38.6200 ha         1 MOL       0.000000
     51 H21         10.7460   142.9920    40.5760 ha         1 MOL       0.000000
     52 H22          8.5530   139.8850    37.0820 ho         1 MOL       0.000000
     53 H23         14.8570   137.5670    46.3950 h1         1 MOL       0.000000
     54 H24         15.7080   136.1660    43.8140 hc         1 MOL       0.000000
     55 H25         14.1960   135.8670    44.6370 hc         1 MOL       0.000000
     56 H26         15.7050   135.4030    45.3860 hc         1 MOL       0.000000
     57 H27         17.3180   137.7540    44.7450 hc         1 MOL       0.000000
     58 H28         17.1920   137.0930    46.3580 hc         1 MOL       0.000000
     59 H29         16.8790   138.7900    46.0830 hc         1 MOL       0.000000
@<TRIPOS>BOND
     1     1     5 2   
     2     2    38 1   
     3     3     2 1   
     4     3     4 1   
     5     4    41 1   
     6     5     4 1   
     7     5    10 1   
     8     6     7 1   
     9     6     1 1   
    10     6    42 1   
    11     7     3 2   
    12     8     7 1   
    13     8     9 2   
    14     9     2 1   
    15     9    43 1   
    16    10    11 1   
    17    12    10 1   
    18    13    12 1   
    19    14    15 1   
    20    14    44 1   
    21    14    45 1   
    22    15    16 1   
    23    15    17 1   
    24    18    15 1   
    25    19    22 1   
    26    19    14 1   
    27    20    19 1   
    28    21    19 1   
    29    22    18 1   
    30    23    46 1   
    31    23    47 1   
    32    23    48 1   
    33    24    25 1   
    34    24    23 1   
    35    26    27 1   
    36    26     6 1   
    37    28    26 1   
    38    29    28 ar  
    39    29    49 1   
    40    30    29 ar  
    41    30    50 1   
    42    31    32 ar  
    43    31    30 ar  
    44    32    34 ar  
    45    33    32 1   
    46    34    28 ar  
    47    34    51 1   
    48    35    31 1   
    49    36    35 1   
    50    36    52 1   
    51    37    35 2   
    52    38    40 1   
    53    38    53 1   
    54    39    38 1   
    55    39    54 1   
    56    39    55 1   
    57    39    56 1   
    58    40    57 1   
    59    40    58 1   
    60    40    59 1   
@<TRIPOS>SUBSTRUCTURE
     1 MOL         1 TEMP              0 ****  ****    0 ROOT
