@<TRIPOS>MOLECULE
MOL
   37    39     1     0     0
SMALL
No Charge or Current Charge


@<TRIPOS>ATOM
      1 C1          17.1100    22.0910     9.5160 c          1 MOL       0.000000
      2 O1          18.2190    22.5940     9.8380 o          1 MOL       0.000000
      3 N1          16.0490    22.0980    10.4250 n          1 MOL       0.000000
      4 H1          16.2160    22.5260    11.3470 hn         1 MOL       0.000000
      5 C2          16.8350    21.4790     8.2230 cc         1 MOL       0.000000
      6 C3          15.5940    20.9440     7.9480 cd         1 MOL       0.000000
      7 C4          14.5020    20.9570     8.9060 cd         1 MOL       0.000000
      8 C5          14.7670    21.5650    10.1750 cc         1 MOL       0.000000
      9 C6          13.7570    21.6700    11.2930 c3         1 MOL       0.000000
     10 C7          12.3240    21.0930    10.9060 c3         1 MOL       0.000000
     11 C8          11.4360    22.1520    10.2200 c2         1 MOL       0.000000
     12 C9          11.5280    18.0710    11.4580 c3         1 MOL       0.000000
     13 C10         12.1170    18.6310    10.1990 c2         1 MOL       0.000000
     14 C11         12.4700    19.8860     9.9510 c2         1 MOL       0.000000
     15 C12         13.0720    20.3320     8.5970 c3         1 MOL       0.000000
     16 C13         12.1480    21.3900     7.9240 c3         1 MOL       0.000000
     17 C14         11.3600    22.2830     8.8660 c2         1 MOL       0.000000
     18 C15         10.4890    23.3070     8.1700 c3         1 MOL       0.000000
     19 N2          13.2180    19.1810     7.6630 n4         1 MOL       0.000000
     20 H2          12.8490    19.3930     6.7450 hn         1 MOL       0.000000
     21 H3          14.1850    18.9110     7.5450 hn         1 MOL       0.000000
     22 H4          12.7300    18.3570     7.9930 hn         1 MOL       0.000000
     23 H5          17.5760    21.4450     7.5060 ha         1 MOL       0.000000
     24 H6          15.4340    20.5160     7.0220 ha         1 MOL       0.000000
     25 H7          13.6480    22.7010    11.5560 hc         1 MOL       0.000000
     26 H8          14.1250    21.0820    12.1080 hc         1 MOL       0.000000
     27 H9          11.8570    20.7940    11.8210 hc         1 MOL       0.000000
     28 H10         10.8770    22.7870    10.8110 ha         1 MOL       0.000000
     29 H11         11.3570    17.0220    11.3360 hc         1 MOL       0.000000
     30 H12         10.6010    18.5620    11.6670 hc         1 MOL       0.000000
     31 H13         12.2060    18.2290    12.2700 hc         1 MOL       0.000000
     32 H14         12.2660    17.9580     9.4310 ha         1 MOL       0.000000
     33 H15         11.4480    20.8670     7.3060 hc         1 MOL       0.000000
     34 H16         12.8030    22.0440     7.3870 hc         1 MOL       0.000000
     35 H17         10.6020    23.2110     7.1100 hc         1 MOL       0.000000
     36 H18         10.7840    24.2900     8.4720 hc         1 MOL       0.000000
     37 H19          9.4650    23.1440     8.4350 hc         1 MOL       0.000000
@<TRIPOS>BOND
     1     1     2 2   
     2     1     3 1   
     3     3     4 1   
     4     5     1 1   
     5     5    23 1   
     6     6     5 2   
     7     6     7 1   
     8     6    24 1   
     9     7     8 2   
    10     8     3 1   
    11     8     9 1   
    12     9    25 1   
    13     9    26 1   
    14    10     9 1   
    15    10    27 1   
    16    11    10 1   
    17    11    28 1   
    18    12    29 1   
    19    12    30 1   
    20    12    31 1   
    21    13    12 1   
    22    13    32 1   
    23    14    13 2   
    24    14    10 1   
    25    15    19 1   
    26    15     7 1   
    27    15    14 1   
    28    16    15 1   
    29    16    17 1   
    30    16    33 1   
    31    16    34 1   
    32    17    11 2   
    33    18    17 1   
    34    18    35 1   
    35    18    36 1   
    36    18    37 1   
    37    19    22 1   
    38    20    19 1   
    39    21    19 1   
@<TRIPOS>SUBSTRUCTURE
     1 MOL         1 TEMP              0 ****  ****    0 ROOT
