@<TRIPOS>MOLECULE
LIGAND
   39    41     1     0     0
SMALL
No Charge or Current Charge


@<TRIPOS>ATOM
      1 S           15.2890     2.8460    16.6520 sy         1 UNL       0.072300
      2 C           15.9880     4.1960    15.7120 ca         1 UNL       0.106700
      3 C1          15.1860     5.2150    15.2560 ca         1 UNL      -0.033300
      4 H           14.1070     5.1710    15.4060 ha         1 UNL       0.063800
      5 C2          15.7540     6.3000    14.6040 ca         1 UNL      -0.034400
      6 H1          15.1300     7.1110    14.2290 ha         1 UNL       0.063900
      7 C3          17.1130     6.3320    14.4410 ca         1 UNL       0.066100
      8 C4          17.9260     5.3110    14.8920 ca         1 UNL      -0.034400
      9 H2          19.0040     5.3610    14.7400 ha         1 UNL       0.063900
     10 C5          17.3580     4.2110    15.5450 ca         1 UNL      -0.033300
     11 H3          17.9780     3.3920    15.9100 ha         1 UNL       0.063800
     12 N           17.6970     7.5280    13.8490 na         1 UNL      -0.231600
     13 C6          17.5200     8.1910    12.6670 cc         1 UNL       0.075200
     14 C7          16.7620     7.8190    11.4780 ca         1 UNL       0.000500
     15 C8          16.8180     6.4970    11.0640 ca         1 UNL      -0.052300
     16 H4          17.3930     5.7720    11.6400 ha         1 UNL       0.062400
     17 C9          16.1520     6.0970     9.9300 ca         1 UNL      -0.058200
     18 H5          16.2350     5.0660     9.5880 ha         1 UNL       0.062000
     19 C10         15.3810     6.9930     9.2250 ca         1 UNL      -0.050400
     20 C11         14.6630     6.5370     7.9810 c3         1 UNL      -0.039700
     21 H6          14.1790     7.3910     7.5070 hc         1 UNL       0.027800
     22 H7          15.3800     6.0960     7.2880 hc         1 UNL       0.027800
     23 H8          13.9110     5.7950     8.2470 hc         1 UNL       0.027800
     24 C12         15.2560     8.3000     9.6820 ca         1 UNL      -0.058200
     25 H9          14.5930     8.9980     9.1710 ha         1 UNL       0.062000
     26 C13         15.9710     8.7060    10.7780 ca         1 UNL      -0.052300
     27 H10         15.9140     9.7450    11.1010 ha         1 UNL       0.062400
     28 C14         18.3570     9.3030    12.7050 cd         1 UNL      -0.003900
     29 H11         18.5300    10.0350    11.9160 ha         1 UNL       0.066000
     30 C15         18.9230     9.2700    13.9750 cd         1 UNL       0.166200
     31 C16         19.8490    10.2670    14.5820 c3         1 UNL       0.436000
     32 F           21.0600    10.2580    14.0890 f          1 UNL      -0.164400
     33 F1          19.9160    10.2130    15.9080 f          1 UNL      -0.164400
     34 F2          19.3800    11.4890    14.3610 f          1 UNL      -0.164400
     35 N1          18.5310     8.2110    14.6570 nc         1 UNL      -0.161800
     36 N2          15.8130     1.4840    16.0220 n2         1 UNL      -0.105300
     37 H12         16.7790     1.1730    16.1980 hn         1 UNL       0.169400
     38 O           13.8900     2.9120    16.5270 o          1 UNL      -0.151900
     39 O1          15.8140     3.0120    17.9850 o          1 UNL      -0.151900
@<TRIPOS>BOND
     1     1     2 1   
     2     1    36 2   
     3     1    38 1   
     4     1    39 2   
     5     2     3 ar  
     6     2    10 ar  
     7     3     5 ar  
     8     3     4 1   
     9     5     7 ar  
    10     5     6 1   
    11     7     8 ar  
    12     7    12 1   
    13     8    10 ar  
    14     8     9 1   
    15    10    11 1   
    16    12    13 1   
    17    12    35 1   
    18    13    14 1   
    19    13    28 2   
    20    14    15 ar  
    21    14    26 ar  
    22    15    17 ar  
    23    15    16 1   
    24    17    19 ar  
    25    17    18 1   
    26    19    20 1   
    27    19    24 ar  
    28    20    21 1   
    29    20    22 1   
    30    20    23 1   
    31    24    26 ar  
    32    24    25 1   
    33    26    27 1   
    34    28    30 1   
    35    28    29 1   
    36    30    31 1   
    37    30    35 2   
    38    31    32 1   
    39    31    33 1   
    40    31    34 1   
    41    36    37 1   
@<TRIPOS>SUBSTRUCTURE
     1 UNL         1 TEMP              0 ****  ****    0 ROOT
