@<TRIPOS>MOLECULE
MOL
   27    28     1     0     0
SMALL
No Charge or Current Charge


@<TRIPOS>ATOM
      1 S1          13.9480    15.2250    18.4360 sy         1 MOL       0.000000
      2 O1          15.2680    14.6670    18.3410 o          1 MOL       0.000000
      3 O2          13.1130    14.3630    19.2110 o          1 MOL       0.000000
      4 N1          14.0790    16.7650    19.2320 nh         1 MOL       0.000000
      5 H1          13.4530    17.5400    18.9680 hn         1 MOL       0.000000
      6 C1          15.0480    16.9460    20.2420 ca         1 MOL       0.000000
      7 C2          14.6720    16.8350    21.6010 ca         1 MOL       0.000000
      8 C3          15.6390    17.0210    22.6130 ca         1 MOL       0.000000
      9 C4          16.9820    17.3160    22.2680 ca         1 MOL       0.000000
     10 C5          17.3640    17.4250    20.9060 ca         1 MOL       0.000000
     11 Cl1         18.1680    17.5500    23.5250 cl         1 MOL       0.000000
     12 C6          16.3960    17.2420    19.8890 ca         1 MOL       0.000000
     13 C7          13.2380    15.4270    16.7370 cc         1 MOL       0.000000
     14 C8          13.6970    16.2820    15.7260 cd         1 MOL       0.000000
     15 S2          12.8660    16.1090    14.5980 ss         1 MOL       0.000000
     16 C9          11.8970    15.1580    14.9340 cd         1 MOL       0.000000
     17 C10         12.1280    14.7380    16.2400 cc         1 MOL       0.000000
     18 C11         14.8490    17.2100    15.7980 c          1 MOL       0.000000
     19 O3          14.9540    18.0910    16.7870 oh         1 MOL       0.000000
     20 O4          15.7150    17.1550    14.9300 o          1 MOL       0.000000
     21 H2          13.6950    16.6190    21.8520 ha         1 MOL       0.000000
     22 H3          15.3680    16.9420    23.6050 ha         1 MOL       0.000000
     23 H4          18.3430    17.6370    20.6580 ha         1 MOL       0.000000
     24 H5          16.6660    17.3230    18.8960 ha         1 MOL       0.000000
     25 H6          11.1390    14.8250    14.3180 h4         1 MOL       0.000000
     26 H7          11.5730    14.0360    16.7550 ha         1 MOL       0.000000
     27 H8          14.2930    18.1330    17.4500 ho         1 MOL       0.000000
@<TRIPOS>BOND
     1     1     3 2   
     2     1     4 1   
     3     2     1 2   
     4     4     6 1   
     5     5     4 1   
     6     6     7 ar  
     7     7     8 ar  
     8     7    21 1   
     9     8    22 1   
    10     9     8 ar  
    11     9    11 1   
    12    10     9 ar  
    13    10    23 1   
    14    12     6 ar  
    15    12    10 ar  
    16    12    24 1   
    17    13     1 1   
    18    14    18 1   
    19    14    13 2   
    20    15    16 1   
    21    15    14 1   
    22    16    17 2   
    23    16    25 1   
    24    17    13 1   
    25    17    26 1   
    26    18    19 1   
    27    19    27 1   
    28    20    18 2   
@<TRIPOS>SUBSTRUCTURE
     1 MOL         1 TEMP              0 ****  ****    0 ROOT
