@<TRIPOS>MOLECULE
MOL
   78    81     1     0     0
SMALL
No Charge or Current Charge


@<TRIPOS>ATOM
      1 C1          32.9620    25.4430    62.3110 c3         1 MOL       0.000000
      2 C2          32.2550    24.9370    63.5930 c3         1 MOL       0.000000
      3 N1          32.7820    23.5450    63.8500 n          1 MOL       0.000000
      4 C3          31.9810    22.6080    64.3320 c          1 MOL       0.000000
      5 O1          30.7240    22.8250    64.6130 o          1 MOL       0.000000
      6 H1          33.7680    23.3230    63.6490 hn         1 MOL       0.000000
      7 C4          32.6080    21.2870    64.6220 ca         1 MOL       0.000000
      8 C5          32.8550    20.4160    63.5290 ca         1 MOL       0.000000
      9 C6          33.4090    19.1240    63.7620 ca         1 MOL       0.000000
     10 C7          33.8230    18.7540    65.0100 ca         1 MOL       0.000000
     11 C8          33.6510    19.6520    66.1050 ca         1 MOL       0.000000
     12 C9          32.9860    20.9130    65.9470 ca         1 MOL       0.000000
     13 C10         32.6750    21.7420    67.1880 c3         1 MOL       0.000000
     14 O2          33.9790    19.2650    67.3710 oh         1 MOL       0.000000
     15 H2          33.4860    19.8600    68.0520 ho         1 MOL       0.000000
     16 C11         32.5980    25.8070    64.8800 c3         1 MOL       0.000000
     17 C12         31.4150    26.6140    65.3520 ca         1 MOL       0.000000
     18 C13         30.0920    26.1740    65.0360 ca         1 MOL       0.000000
     19 C14         28.9990    27.0200    65.4100 ca         1 MOL       0.000000
     20 C15         29.1920    28.2450    66.0690 ca         1 MOL       0.000000
     21 C16         30.4980    28.6390    66.3760 ca         1 MOL       0.000000
     22 C17         31.5800    27.8540    66.0070 ca         1 MOL       0.000000
     23 O3          34.3170    25.7940    62.5850 oh         1 MOL       0.000000
     24 H3          34.7480    26.1890    61.7370 ho         1 MOL       0.000000
     25 C18         32.2500    26.7110    61.8420 c          1 MOL       0.000000
     26 O4          31.3350    27.2770    62.4760 o          1 MOL       0.000000
     27 N2          32.6180    27.2190    60.6200 n          1 MOL       0.000000
     28 C19         33.6940    26.6020    59.7600 c3         1 MOL       0.000000
     29 C20         31.9120    28.3850    60.0450 c3         1 MOL       0.000000
     30 S1          33.5490    27.4320    58.1550 ss         1 MOL       0.000000
     31 C21         32.8670    28.9360    58.9450 c3         1 MOL       0.000000
     32 C22         33.9790    29.7290    59.6330 c3         1 MOL       0.000000
     33 C23         32.1590    29.8570    57.9340 c3         1 MOL       0.000000
     34 C24         30.5220    27.9500    59.5340 c          1 MOL       0.000000
     35 O5          30.3430    27.0570    58.6540 o          1 MOL       0.000000
     36 N3          29.4620    28.6700    60.1010 n          1 MOL       0.000000
     37 H4          29.6610    29.3750    60.8250 hn         1 MOL       0.000000
     38 C25         28.0590    28.4370    59.6810 c3         1 MOL       0.000000
     39 C26         27.1060    29.2450    60.5720 ca         1 MOL       0.000000
     40 C27         25.7040    29.1470    60.4410 ca         1 MOL       0.000000
     41 C28         24.9010    29.9740    61.2340 ca         1 MOL       0.000000
     42 C29         25.0880    28.2510    59.4380 c3         1 MOL       0.000000
     43 C30         25.4970    30.8640    62.1610 ca         1 MOL       0.000000
     44 C31         26.8530    30.9650    62.2920 ca         1 MOL       0.000000
     45 C32         27.6630    30.1490    61.4700 ca         1 MOL       0.000000
     46 H5          32.9330    24.6680    61.5740 h1         1 MOL       0.000000
     47 H6          31.1980    24.9870    63.4360 h1         1 MOL       0.000000
     48 H7          32.6340    20.7180    62.5670 ha         1 MOL       0.000000
     49 H8          33.4990    18.4590    62.9780 ha         1 MOL       0.000000
     50 H9          34.2580    17.8300    65.1600 ha         1 MOL       0.000000
     51 H10         32.1820    22.6460    66.8980 hc         1 MOL       0.000000
     52 H11         33.5860    21.9800    67.6960 hc         1 MOL       0.000000
     53 H12         32.0390    21.1820    67.8410 hc         1 MOL       0.000000
     54 H13         33.3980    26.4760    64.6410 hc         1 MOL       0.000000
     55 H14         32.8740    25.1360    65.6670 hc         1 MOL       0.000000
     56 H15         29.9300    25.2760    64.5540 ha         1 MOL       0.000000
     57 H16         28.0370    26.7190    65.1880 ha         1 MOL       0.000000
     58 H17         28.3880    28.8410    66.3210 ha         1 MOL       0.000000
     59 H18         30.6590    29.5240    66.8830 ha         1 MOL       0.000000
     60 H19         32.5340    28.1860    66.2170 ha         1 MOL       0.000000
     61 H20         34.6600    26.7740    60.1860 h2         1 MOL       0.000000
     62 H21         33.5800    25.5410    59.6750 h2         1 MOL       0.000000
     63 H22         31.7060    29.1630    60.7500 h1         1 MOL       0.000000
     64 H23         34.6490    30.1180    58.8950 hc         1 MOL       0.000000
     65 H24         34.5160    29.0860    60.2990 hc         1 MOL       0.000000
     66 H25         33.5500    30.5380    60.1870 hc         1 MOL       0.000000
     67 H26         32.8660    30.2000    57.2080 hc         1 MOL       0.000000
     68 H27         31.7400    30.6960    58.4490 hc         1 MOL       0.000000
     69 H28         31.3790    29.3140    57.4430 hc         1 MOL       0.000000
     70 H29         27.8300    27.3950    59.7700 h1         1 MOL       0.000000
     71 H30         27.9390    28.7480    58.6640 h1         1 MOL       0.000000
     72 H31         23.8740    29.9360    61.1440 ha         1 MOL       0.000000
     73 H32         25.8540    27.7010    58.9330 hc         1 MOL       0.000000
     74 H33         24.5400    28.8340    58.7270 hc         1 MOL       0.000000
     75 H34         24.4240    27.5700    59.9280 hc         1 MOL       0.000000
     76 H35         24.8900    31.4520    62.7540 ha         1 MOL       0.000000
     77 H36         27.2740    31.6180    62.9710 ha         1 MOL       0.000000
     78 H37         28.6900    30.2260    61.5380 ha         1 MOL       0.000000
@<TRIPOS>BOND
     1     1    23 1   
     2     1     2 1   
     3     1    46 1   
     4     2     3 1   
     5     2    16 1   
     6     2    47 1   
     7     3     4 1   
     8     4     5 2   
     9     4     7 1   
    10     6     3 1   
    11     7    12 ar  
    12     8     9 ar  
    13     8     7 ar  
    14     8    48 1   
    15     9    10 ar  
    16     9    49 1   
    17    10    11 ar  
    18    10    50 1   
    19    11    14 1   
    20    12    11 ar  
    21    12    13 1   
    22    13    51 1   
    23    13    52 1   
    24    13    53 1   
    25    14    15 1   
    26    16    17 1   
    27    16    54 1   
    28    16    55 1   
    29    17    22 ar  
    30    18    17 ar  
    31    18    19 ar  
    32    18    56 1   
    33    19    20 ar  
    34    19    57 1   
    35    20    21 ar  
    36    20    58 1   
    37    21    59 1   
    38    22    21 ar  
    39    22    60 1   
    40    24    23 1   
    41    25     1 1   
    42    25    26 2   
    43    27    25 1   
    44    28    27 1   
    45    28    61 1   
    46    28    62 1   
    47    29    27 1   
    48    29    63 1   
    49    30    31 1   
    50    30    28 1   
    51    31    32 1   
    52    31    29 1   
    53    32    64 1   
    54    32    65 1   
    55    32    66 1   
    56    33    31 1   
    57    33    67 1   
    58    33    68 1   
    59    33    69 1   
    60    34    29 1   
    61    34    36 1   
    62    35    34 2   
    63    36    37 1   
    64    38    36 1   
    65    38    39 1   
    66    38    70 1   
    67    38    71 1   
    68    39    45 ar  
    69    40    39 ar  
    70    40    41 ar  
    71    41    43 ar  
    72    41    72 1   
    73    42    40 1   
    74    42    73 1   
    75    42    74 1   
    76    42    75 1   
    77    43    44 ar  
    78    43    76 1   
    79    44    77 1   
    80    45    44 ar  
    81    45    78 1   
@<TRIPOS>SUBSTRUCTURE
     1 MOL         1 TEMP              0 ****  ****    0 ROOT
