@<TRIPOS>MOLECULE
MOL
   34    36     1     0     0
SMALL
No Charge or Current Charge


@<TRIPOS>ATOM
      1 N1          29.9130    44.1670    33.5580 na         1 MOL       0.000000
      2 C1          29.5180    43.2530    34.5070 ca         1 MOL       0.000000
      3 C2          28.6340    42.1740    34.5470 ca         1 MOL       0.000000
      4 C3          30.2770    43.5470    35.7430 cp         1 MOL       0.000000
      5 C4          30.1380    42.8160    36.9160 ca         1 MOL       0.000000
      6 C5          29.2390    41.7410    36.8910 ca         1 MOL       0.000000
      7 C6          28.5020    41.4350    35.7350 ca         1 MOL       0.000000
      8 C7          31.1120    44.6950    35.4470 cp         1 MOL       0.000000
      9 C8          30.8420    45.0500    34.0400 ca         1 MOL       0.000000
     10 C9          31.5450    46.1370    33.5080 ca         1 MOL       0.000000
     11 C10         32.0150    45.3850    36.2560 ca         1 MOL       0.000000
     12 C11         32.6780    46.4690    35.6670 ca         1 MOL       0.000000
     13 C12         32.4440    46.8260    34.3310 ca         1 MOL       0.000000
     14 C13         29.3660    44.2410    32.1940 c3         1 MOL       0.000000
     15 C14         29.9170    43.1470    31.2610 c3         1 MOL       0.000000
     16 C15         28.8240    42.2130    30.7050 c3         1 MOL       0.000000
     17 C16         28.5020    42.5070    29.2560 c          1 MOL       0.000000
     18 O1          28.9040    41.7800    28.3590 o          1 MOL       0.000000
     19 O2          27.7660    43.5630    28.9250 oh         1 MOL       0.000000
     20 H1          28.0820    41.9210    33.7120 ha         1 MOL       0.000000
     21 H2          30.6720    43.0530    37.7670 ha         1 MOL       0.000000
     22 H3          29.1160    41.1640    37.7370 ha         1 MOL       0.000000
     23 H4          27.8420    40.6420    35.7590 ha         1 MOL       0.000000
     24 H5          31.4030    46.4250    32.5270 ha         1 MOL       0.000000
     25 H6          32.1850    45.1110    37.2360 ha         1 MOL       0.000000
     26 H7          33.3510    47.0150    36.2270 ha         1 MOL       0.000000
     27 H8          32.9560    47.6310    33.9380 ha         1 MOL       0.000000
     28 H9          28.3020    44.1380    32.2480 h1         1 MOL       0.000000
     29 H10         29.6580    45.1860    31.7850 h1         1 MOL       0.000000
     30 H11         30.4110    43.6200    30.4380 hc         1 MOL       0.000000
     31 H12         30.5850    42.5440    31.8400 hc         1 MOL       0.000000
     32 H13         29.1630    41.2010    30.7840 hc         1 MOL       0.000000
     33 H14         27.9340    42.3720    31.2770 hc         1 MOL       0.000000
     34 H15         27.4440    44.1380    29.5920 ho         1 MOL       0.000000
@<TRIPOS>BOND
     1     1     9 1   
     2     1     2 1   
     3     2     3 ar  
     4     2     4 ar  
     5     3     7 ar  
     6     3    20 1   
     7     4     5 ar  
     8     5    21 1   
     9     6     5 ar  
    10     6    22 1   
    11     7     6 ar  
    12     7    23 1   
    13     8     4 1   
    14     8    11 ar  
    15     9     8 ar  
    16    10     9 ar  
    17    10    13 ar  
    18    10    24 1   
    19    11    25 1   
    20    12    11 ar  
    21    12    26 1   
    22    13    12 ar  
    23    13    27 1   
    24    14     1 1   
    25    14    28 1   
    26    14    29 1   
    27    15    14 1   
    28    15    30 1   
    29    15    31 1   
    30    16    15 1   
    31    16    32 1   
    32    16    33 1   
    33    17    16 1   
    34    18    17 2   
    35    19    17 1   
    36    19    34 1   
@<TRIPOS>SUBSTRUCTURE
     1 MOL         1 TEMP              0 ****  ****    0 ROOT
