@<TRIPOS>MOLECULE
LIGAND
   52    54     1     0     0
SMALL
No Charge or Current Charge


@<TRIPOS>ATOM
      1 O           57.5260    30.7120    29.6960 oh         1 UNL      -0.393200
      2 H           57.4440    31.7250    29.5310 ho         1 UNL       0.209500
      3 C           58.5430    30.4700    30.6370 c3         1 UNL       0.062600
      4 H1          58.1940    29.7030    31.3460 h1         1 UNL       0.057500
      5 H2          58.7570    31.3870    31.2130 h1         1 UNL       0.057500
      6 CA          59.7790    30.0060    29.8600 c3         1 UNL       0.046100
      7 HA          59.9920    30.7070    29.0410 h1         1 UNL       0.052100
      8 C1          60.9360    29.9110    30.8560 c3         1 UNL      -0.035200
      9 H3          60.6330    30.2530    31.8620 hc         1 UNL       0.028100
     10 H4          61.7420    30.6030    30.5570 hc         1 UNL       0.028100
     11 C2          61.5400    28.5300    31.0020 c3         1 UNL      -0.063500
     12 H5          62.3950    28.5510    31.6980 hc         1 UNL       0.023000
     13 H6          60.8150    27.8010    31.4000 hc         1 UNL       0.023000
     14 H7          61.9160    28.1460    30.0380 hc         1 UNL       0.023000
     15 N           59.3650    28.7200    29.3170 nh         1 UNL      -0.308300
     16 H8          59.2170    27.9580    29.9940 hn         1 UNL       0.149300
     17 C3          59.1540    28.4240    28.0090 ca         1 UNL       0.219100
     18 N1          58.7540    27.1700    27.6870 nb         1 UNL      -0.194700
     19 C4          58.5380    26.8490    26.4000 ca         1 UNL       0.167400
     20 N2          58.1300    25.6970    25.9200 na         1 UNL      -0.312300
     21 C5          57.8910    24.6280    26.9030 c3         1 UNL       0.031700
     22 H9          58.1030    25.0110    27.9150 h1         1 UNL       0.052300
     23 C6          56.3900    24.3410    26.8940 c3         1 UNL      -0.044400
     24 H10         56.1440    23.5930    27.6650 hc         1 UNL       0.024900
     25 H11         55.8280    25.2610    27.1240 hc         1 UNL       0.024900
     26 H12         56.0420    23.9520    25.9250 hc         1 UNL       0.024900
     27 C7          58.8760    23.5100    26.6870 c3         1 UNL      -0.044400
     28 H13         58.7390    22.7340    27.4580 hc         1 UNL       0.024900
     29 H14         58.7650    23.0320    25.7020 hc         1 UNL       0.024900
     30 H15         59.9080    23.8890    26.7680 hc         1 UNL       0.024900
     31 C8          58.0350    25.8320    24.5670 cc         1 UNL       0.098500
     32 H16         57.6790    25.0540    23.8920 h5         1 UNL       0.102900
     33 C9          58.7260    27.7150    25.3830 ca         1 UNL       0.147600
     34 N3          58.4500    27.0880    24.1650 nd         1 UNL      -0.230600
     35 N4          59.3420    29.3060    27.0100 nb         1 UNL      -0.197400
     36 C10         59.1360    28.9930    25.7240 ca         1 UNL       0.151900
     37 N5          59.2820    29.8860    24.7360 nh         1 UNL      -0.323100
     38 H17         59.3330    29.5510    23.7630 hn         1 UNL       0.147900
     39 C11         59.3710    31.3210    24.9960 c3         1 UNL       0.035700
     40 H18         58.7900    31.5640    25.8980 h1         1 UNL       0.051100
     41 H19         58.8710    31.8440    24.1610 h1         1 UNL       0.051100
     42 C12         60.7840    31.8420    25.1170 ca         1 UNL      -0.030400
     43 C13         61.1160    32.7270    26.1490 ca         1 UNL      -0.057100
     44 H20         60.3580    33.0340    26.8690 ha         1 UNL       0.062100
     45 C14         62.4230    33.2180    26.2560 ca         1 UNL      -0.061500
     46 H21         62.6880    33.8860    27.0760 ha         1 UNL       0.061800
     47 C15         63.3890    32.8540    25.3140 ca         1 UNL      -0.061700
     48 H22         64.4040    33.2440    25.3940 ha         1 UNL       0.061800
     49 C16         63.0520    31.9900    24.2700 ca         1 UNL      -0.061500
     50 H23         63.8020    31.7100    23.5310 ha         1 UNL       0.061800
     51 C17         61.7520    31.4840    24.1730 ca         1 UNL      -0.057100
     52 H24         61.4920    30.8080    23.3580 ha         1 UNL       0.062100
@<TRIPOS>BOND
     1     1     3 1   
     2     1     2 1   
     3     3     6 1   
     4     3     4 1   
     5     3     5 1   
     6     6     8 1   
     7     6    15 1   
     8     6     7 1   
     9     8    11 1   
    10     8     9 1   
    11     8    10 1   
    12    11    12 1   
    13    11    13 1   
    14    11    14 1   
    15    15    17 1   
    16    15    16 1   
    17    17    18 ar  
    18    17    35 ar  
    19    18    19 ar  
    20    19    20 1   
    21    19    33 ar  
    22    20    21 1   
    23    20    31 1   
    24    21    23 1   
    25    21    27 1   
    26    21    22 1   
    27    23    24 1   
    28    23    25 1   
    29    23    26 1   
    30    27    28 1   
    31    27    29 1   
    32    27    30 1   
    33    31    34 2   
    34    31    32 1   
    35    33    34 1   
    36    33    36 ar  
    37    35    36 ar  
    38    36    37 1   
    39    37    39 1   
    40    37    38 1   
    41    39    42 1   
    42    39    40 1   
    43    39    41 1   
    44    42    43 ar  
    45    42    51 ar  
    46    43    45 ar  
    47    43    44 1   
    48    45    47 ar  
    49    45    46 1   
    50    47    49 ar  
    51    47    48 1   
    52    49    51 ar  
    53    49    50 1   
    54    51    52 1   
@<TRIPOS>SUBSTRUCTURE
     1 UNL         1 TEMP              0 ****  ****    0 ROOT
