@<TRIPOS>MOLECULE
LIGAND
   65    69     1     0     0
SMALL
No Charge or Current Charge


@<TRIPOS>ATOM
      1 C            5.4490    -0.5080    18.6240 ca         1 UNL      -0.051100
      2 H            5.7880    -0.3930    19.6540 ha         1 UNL       0.062500
      3 C1           4.5650    -0.8100    16.0060 ca         1 UNL      -0.025900
      4 H1           4.2360    -0.9210    14.9730 ha         1 UNL       0.064600
      5 C2           4.1820    -1.0730    18.3820 ca         1 UNL      -0.010400
      6 C3           6.2850    -0.0910    17.5860 ca         1 UNL      -0.025900
      7 H2           7.2650     0.3440    17.7830 ha         1 UNL       0.064600
      8 C4           5.8100    -0.2570    16.2890 ca         1 UNL       0.123400
      9 C5           3.7370    -1.2240    17.0600 ca         1 UNL      -0.051100
     10 H3           2.7590    -1.6580    16.8540 ha         1 UNL       0.062500
     11 C6           3.3810    -1.4790    19.5430 cc         1 UNL       0.074900
     12 F            6.5990     0.1370    15.2950 f          1 UNL      -0.205500
     13 N            2.1750    -2.9890    20.8490 n          1 UNL      -0.246100
     14 C7           1.4800    -4.1590    21.3750 c3         1 UNL       0.051200
     15 H4           1.4140    -4.0440    22.4680 h1         1 UNL       0.054400
     16 C8           1.5760    -1.6340    22.7780 c3         1 UNL       0.029200
     17 H5           1.3470    -0.5880    23.0140 h1         1 UNL       0.047200
     18 H6           0.6110    -2.1580    22.8290 h1         1 UNL       0.047200
     19 H7           2.2590    -2.0290    23.5440 h1         1 UNL       0.047200
     20 C9           2.9080    -0.8680    20.6510 cd         1 UNL       0.096600
     21 C10          3.0750     0.5310    21.0580 ca         1 UNL       0.094500
     22 O            3.0970    -3.8030    18.8770 o          1 UNL      -0.265500
     23 C11          2.8950    -2.9020    19.6670 c          1 UNL       0.275800
     24 N1           2.1780    -1.7310    21.4660 na         1 UNL      -0.281400
     25 C12         -0.5900    -5.5720    21.2130 c3         1 UNL      -0.091500
     26 H8          -1.5810    -5.6930    20.7530 hx         1 UNL       0.005500
     27 H9          -0.7180    -5.5990    22.3050 hx         1 UNL       0.005500
     28 C13          1.5360    -6.6780    21.4960 c3         1 UNL      -0.091500
     29 H10          1.3430    -6.7370    22.5780 hx         1 UNL       0.005500
     30 H11          2.0960    -7.5800    21.2090 hx         1 UNL       0.005500
     31 C14          2.3150    -5.4200    21.1320 c3         1 UNL      -0.045900
     32 H12          3.2500    -5.3940    21.7130 hc         1 UNL       0.026700
     33 H13          2.6040    -5.5680    20.0860 hc         1 UNL       0.026700
     34 C15          0.0810    -4.2770    20.7600 c3         1 UNL      -0.045900
     35 H14          0.1560    -4.2410    19.6580 hc         1 UNL       0.026700
     36 H15         -0.5530    -3.4260    21.0520 hc         1 UNL       0.026700
     37 N2           0.2420    -6.7070    20.8160 n4         1 UNL       0.379100
     38 H16          0.3780    -6.7030    19.8110 hn         1 UNL      -0.085900
     39 H17         -0.2310    -7.5860    20.9970 hn         1 UNL      -0.085900
     40 N3           3.2280     0.8200    22.3590 nb         1 UNL      -0.212900
     41 C16          3.2290     2.8090    20.5140 ca         1 UNL       0.033300
     42 H18          3.2300     3.6130    19.7780 h4         1 UNL       0.083100
     43 N4           3.5370     2.4650    23.9890 nh         1 UNL      -0.306900
     44 H19          3.7380     3.4550    24.1910 hn         1 UNL       0.149500
     45 C17          3.0690     1.5140    20.0850 ca         1 UNL      -0.015900
     46 H20          2.9430     1.2730    19.0290 ha         1 UNL       0.065500
     47 C18          3.3780     2.1050    22.6890 ca         1 UNL       0.216200
     48 N5           3.3840     3.1140    21.8130 nb         1 UNL      -0.222900
     49 C19          3.4450     1.5650    25.0990 c3         1 UNL       0.045700
     50 H21          4.1990     0.7630    24.9680 h1         1 UNL       0.054500
     51 C20          2.1050     0.8860    25.2920 ca         1 UNL      -0.027500
     52 C21          3.7960     2.3060    26.4050 c3         1 UNL      -0.042400
     53 H22          3.8030     1.5950    27.2470 hc         1 UNL       0.025100
     54 H23          4.7890     2.7770    26.3560 hc         1 UNL       0.025100
     55 H24          3.0540     3.0880    26.6300 hc         1 UNL       0.025100
     56 C22         -0.3270    -0.4290    25.6950 ca         1 UNL      -0.061700
     57 H25         -1.2730    -0.9470    25.8550 ha         1 UNL       0.061800
     58 C23          2.0630    -0.3090    26.0290 ca         1 UNL      -0.056800
     59 H26          2.9780    -0.7290    26.4470 ha         1 UNL       0.062100
     60 C24          0.9180     1.4030    24.7670 ca         1 UNL      -0.056800
     61 H27          0.9430     2.3300    24.1940 ha         1 UNL       0.062100
     62 C25         -0.2990     0.7500    24.9650 ca         1 UNL      -0.061400
     63 H28         -1.2190     1.1620    24.5500 ha         1 UNL       0.061800
     64 C26          0.8460    -0.9520    26.2220 ca         1 UNL      -0.061400
     65 H29          0.8120    -1.8790    26.7940 ha         1 UNL       0.061800
@<TRIPOS>BOND
     1     1     5 ar  
     2     1     6 ar  
     3     1     2 1   
     4     3     8 ar  
     5     3     9 ar  
     6     3     4 1   
     7     5     9 ar  
     8     5    11 1   
     9     6     8 ar  
    10     6     7 1   
    11     8    12 1   
    12     9    10 1   
    13    11    20 2   
    14    11    23 1   
    15    13    14 1   
    16    13    23 1   
    17    13    24 1   
    18    14    31 1   
    19    14    34 1   
    20    14    15 1   
    21    16    24 1   
    22    16    17 1   
    23    16    18 1   
    24    16    19 1   
    25    20    21 1   
    26    20    24 1   
    27    21    40 ar  
    28    21    45 ar  
    29    22    23 2   
    30    25    34 1   
    31    25    37 1   
    32    25    26 1   
    33    25    27 1   
    34    28    31 1   
    35    28    37 1   
    36    28    29 1   
    37    28    30 1   
    38    31    32 1   
    39    31    33 1   
    40    34    35 1   
    41    34    36 1   
    42    37    38 1   
    43    37    39 1   
    44    40    47 ar  
    45    41    45 ar  
    46    41    48 ar  
    47    41    42 1   
    48    43    47 1   
    49    43    49 1   
    50    43    44 1   
    51    45    46 1   
    52    47    48 ar  
    53    49    51 1   
    54    49    52 1   
    55    49    50 1   
    56    51    58 ar  
    57    51    60 ar  
    58    52    53 1   
    59    52    54 1   
    60    52    55 1   
    61    56    62 ar  
    62    56    64 ar  
    63    56    57 1   
    64    58    64 ar  
    65    58    59 1   
    66    60    62 ar  
    67    60    61 1   
    68    62    63 1   
    69    64    65 1   
@<TRIPOS>SUBSTRUCTURE
     1 UNL         1 TEMP              0 ****  ****    0 ROOT
