@<TRIPOS>MOLECULE
MOL
   59    59     1     0     0
SMALL
No Charge or Current Charge


@<TRIPOS>ATOM
      1 N1          23.4930    15.9550    31.1350 n2         1 MOL       0.000000
      2 N2          25.8190    12.5940    31.4330 na         1 MOL       0.000000
      3 C1          25.1500    13.7580    31.1990 cc         1 MOL       0.000000
      4 N3          25.4840    14.8820    30.3380 nh         1 MOL       0.000000
      5 C2          24.6140    15.9350    30.3060 c2         1 MOL       0.000000
      6 C3          23.1390    14.9400    31.9840 c3         1 MOL       0.000000
      7 C4          23.9420    13.7810    32.0410 cd         1 MOL       0.000000
      8 N4          23.9570    12.6130    32.7390 nd         1 MOL       0.000000
      9 C5          25.0650    11.9250    32.3570 cc         1 MOL       0.000000
     10 N5          24.8690    17.0230    29.5140 nh         1 MOL       0.000000
     11 H1          24.3270    17.2110    28.6590 hn         1 MOL       0.000000
     12 C6          25.9540    17.9010    29.9500 c1         1 MOL       0.000000
     13 H2          26.3990    17.4150    30.8370 ha         1 MOL       0.000000
     14 C7          25.5060    19.1960    30.6580 c3         1 MOL       0.000000
     15 C8          25.1730    19.0000    32.1590 c3         1 MOL       0.000000
     16 H3          24.3580    18.2680    32.2830 hc         1 MOL       0.000000
     17 H4          26.0370    18.6330    32.7330 hc         1 MOL       0.000000
     18 H5          24.8340    19.9470    32.6110 hc         1 MOL       0.000000
     19 C9          24.5300    20.0650    29.8760 c3         1 MOL       0.000000
     20 H6          23.4960    19.7050    30.0190 hc         1 MOL       0.000000
     21 H7          24.5370    21.1090    30.2310 hc         1 MOL       0.000000
     22 H8          24.7260    20.0620    28.7920 hc         1 MOL       0.000000
     23 C10         27.1490    18.0170    28.9850 c3         1 MOL       0.000000
     24 O1          26.7020    18.6880    27.8370 oh         1 MOL       0.000000
     25 H9          27.4740    18.7570    27.1570 ho         1 MOL       0.000000
     26 N6          22.0160    14.9920    32.7790 nh         1 MOL       0.000000
     27 H10         21.7430    14.1360    33.2820 hn         1 MOL       0.000000
     28 C11         21.2380    16.1010    32.9460 ca         1 MOL       0.000000
     29 C12         21.6050    17.0660    33.9060 ca         1 MOL       0.000000
     30 C13         20.8040    18.1780    34.1270 ca         1 MOL       0.000000
     31 C14         19.6120    18.3310    33.3940 ca         1 MOL       0.000000
     32 C15         19.2150    17.2880    32.4060 ca         1 MOL       0.000000
     33 Cl1         17.9260    17.3850    31.6030 cl         1 MOL       0.000000
     34 C16         20.0700    16.2130    32.2220 ca         1 MOL       0.000000
     35 C17         18.7360    19.5160    33.6250 c          1 MOL       0.000000
     36 O2          17.5240    19.3540    33.8420 oh         1 MOL       0.000000
     37 O3          19.2140    20.6600    33.5930 o          1 MOL       0.000000
     38 C18         27.0330    12.0220    30.7970 c3         1 MOL       0.000000
     39 C19         27.2670    10.6890    31.4830 c3         1 MOL       0.000000
     40 C20         26.9480    11.7720    29.2960 c3         1 MOL       0.000000
     41 H11         26.3070    14.8840    29.7980 hn         1 MOL       0.000000
     42 H12         22.8520    15.9700    32.0330 h2         1 MOL       0.000000
     43 H13         25.3120    10.9930    32.7260 h5         1 MOL       0.000000
     44 H14         26.4740    19.6470    30.5920 hc         1 MOL       0.000000
     45 H15         25.4510    18.2230    30.2160 hc         1 MOL       0.000000
     46 H16         26.3480    17.9450    29.6910 h1         1 MOL       0.000000
     47 H17         27.9620    18.5590    29.4220 h1         1 MOL       0.000000
     48 H18         27.4780    17.0350    28.7180 h1         1 MOL       0.000000
     49 H19         22.4750    16.9450    34.4480 ha         1 MOL       0.000000
     50 H20         21.0800    18.8870    34.8240 ha         1 MOL       0.000000
     51 H21         19.8290    15.4850    31.5320 ha         1 MOL       0.000000
     52 H22         17.1640    18.4890    33.8660 ho         1 MOL       0.000000
     53 H23         27.8180    12.7400    30.9110 h1         1 MOL       0.000000
     54 H24         26.4290    10.0460    31.3090 hc         1 MOL       0.000000
     55 H25         27.3850    10.8450    32.5350 hc         1 MOL       0.000000
     56 H26         28.1520    10.2350    31.0890 hc         1 MOL       0.000000
     57 H27         26.1770    11.0570    29.0970 hc         1 MOL       0.000000
     58 H28         27.8850    11.3940    28.9440 hc         1 MOL       0.000000
     59 H29         26.7220    12.6900    28.7940 hc         1 MOL       0.000000
@<TRIPOS>BOND
     1     1     6 1   
     2     2     9 1   
     3     3     2 1   
     4     3     7 2   
     5     4     3 1   
     6     4    41 1   
     7     5     4 1   
     8     5     1 2   
     9     6     7 1   
    10     6    26 1   
    11     6    42 1   
    12     7     8 1   
    13     9     8 2   
    14     9    43 1   
    15    10    12 3   
    16    10     5 1   
    17    11    10 1   
    18    12    13 1   
    19    14    15 1   
    20    14    44 1   
    21    14    45 1   
    22    15    16 1   
    23    15    18 1   
    24    15    17 1   
    25    19    20 1   
    26    19    21 1   
    27    19    14 1   
    28    22    19 1   
    29    23    46 1   
    30    23    47 1   
    31    23    48 1   
    32    24    23 1   
    33    25    24 1   
    34    26    28 1   
    35    26    27 1   
    36    28    29 ar  
    37    29    30 ar  
    38    29    49 1   
    39    30    50 1   
    40    31    35 1   
    41    31    30 ar  
    42    32    31 ar  
    43    33    32 1   
    44    34    32 ar  
    45    34    28 ar  
    46    34    51 1   
    47    35    36 1   
    48    36    52 1   
    49    37    35 2   
    50    38     2 1   
    51    38    39 1   
    52    38    53 1   
    53    39    54 1   
    54    39    55 1   
    55    39    56 1   
    56    40    38 1   
    57    40    57 1   
    58    40    58 1   
    59    40    59 1   
@<TRIPOS>SUBSTRUCTURE
     1 MOL         1 TEMP              0 ****  ****    0 ROOT
