@<TRIPOS>MOLECULE
MOL
   24    25     1     0     0
SMALL
No Charge or Current Charge


@<TRIPOS>ATOM
      1 C1          -0.3460    33.6060    15.5140 ca         1 MOL       0.000000
      2 C2           0.5070    32.7750    14.7790 ca         1 MOL       0.000000
      3 C3           0.7360    32.9910    13.3810 ca         1 MOL       0.000000
      4 C4           0.0750    34.0840    12.7750 ca         1 MOL       0.000000
      5 C5          -0.7530    34.9190    13.4490 ca         1 MOL       0.000000
      6 C6          -0.9830    34.7180    14.8190 ca         1 MOL       0.000000
      7 C7          -1.8340    35.5720    15.6030 ca         1 MOL       0.000000
      8 C8          -2.0520    35.3180    16.9440 ca         1 MOL       0.000000
      9 C9          -1.4270    34.2530    17.6190 ca         1 MOL       0.000000
     10 C10         -0.5990    33.3940    16.9340 ca         1 MOL       0.000000
     11 C11          1.1920    31.5540    15.4500 c3         1 MOL       0.000000
     12 C12          2.6470    31.8270    15.6400 c          1 MOL       0.000000
     13 O1           3.1480    33.0230    15.8090 oh         1 MOL       0.000000
     14 O2           3.3320    30.6960    15.7290 o          1 MOL       0.000000
     15 H1           1.3590    32.3730    12.8380 ha         1 MOL       0.000000
     16 H2           0.2310    34.2550    11.7690 ha         1 MOL       0.000000
     17 H3          -1.2130    35.7000    12.9560 ha         1 MOL       0.000000
     18 H4          -2.2880    36.3850    15.1580 ha         1 MOL       0.000000
     19 H5          -2.6960    35.9310    17.4690 ha         1 MOL       0.000000
     20 H6          -1.5900    34.1160    18.6290 ha         1 MOL       0.000000
     21 H7          -0.1580    32.6010    17.4250 ha         1 MOL       0.000000
     22 H8           1.0710    30.6930    14.8260 hc         1 MOL       0.000000
     23 H9           0.7400    31.3770    16.4040 hc         1 MOL       0.000000
     24 H10          2.5980    33.7770    15.7290 ho         1 MOL       0.000000
@<TRIPOS>BOND
     1     1    10 ar  
     2     2    11 1   
     3     2     1 ar  
     4     3     2 ar  
     5     3    15 1   
     6     4     3 ar  
     7     4     5 ar  
     8     4    16 1   
     9     5     6 ar  
    10     5    17 1   
    11     6     1 ar  
    12     6     7 ar  
    13     7     8 ar  
    14     7    18 1   
    15     8     9 ar  
    16     8    19 1   
    17     9    20 1   
    18    10     9 ar  
    19    10    21 1   
    20    11    12 1   
    21    11    22 1   
    22    11    23 1   
    23    12    14 2   
    24    12    13 1   
    25    13    24 1   
@<TRIPOS>SUBSTRUCTURE
     1 MOL         1 TEMP              0 ****  ****    0 ROOT
