@<TRIPOS>MOLECULE
MOL
   35    37     1     0     0
SMALL
No Charge or Current Charge


@<TRIPOS>ATOM
      1 C1           0.9240    -2.9460    31.3140 ca         1 MOL       0.000000
      2 C2          -0.4010    -2.4820    30.9400 ca         1 MOL       0.000000
      3 C3          -0.4810    -1.3800    30.0140 ca         1 MOL       0.000000
      4 C4           0.6790    -0.7720    29.4930 ca         1 MOL       0.000000
      5 C5           1.9700    -1.2350    29.8730 ca         1 MOL       0.000000
      6 F1           3.1130    -0.6660    29.3860 f          1 MOL       0.000000
      7 C6           2.0790    -2.3190    30.7800 ca         1 MOL       0.000000
      8 N1           1.1350    -3.9620    32.1560 nh         1 MOL       0.000000
      9 H1           2.0970    -4.2480    32.3870 hn         1 MOL       0.000000
     10 H2           0.3360    -4.4590    32.5740 hn         1 MOL       0.000000
     11 C7          -1.7690    -3.0300    31.4020 c          1 MOL       0.000000
     12 N2          -2.9660    -2.4980    30.8060 n          1 MOL       0.000000
     13 C8          -4.2630    -2.8510    31.0530 cc         1 MOL       0.000000
     14 H3          -2.8280    -1.7580    30.1030 hn         1 MOL       0.000000
     15 S1          -4.7710    -4.1070    32.1040 ss         1 MOL       0.000000
     16 N3          -5.2730    -2.2110    30.4500 nc         1 MOL       0.000000
     17 C9          -6.4200    -3.7650    31.7240 cd         1 MOL       0.000000
     18 C10         -6.4840    -2.7330    30.8340 cc         1 MOL       0.000000
     19 O1          -1.8190    -3.9200    32.2620 o          1 MOL       0.000000
     20 S2           0.4450     0.5630    28.3620 ss         1 MOL       0.000000
     21 C11          1.6450     0.5900    27.0780 cd         1 MOL       0.000000
     22 N4           2.6850     1.5070    27.1630 na         1 MOL       0.000000
     23 C12          3.3610     1.1840    25.9950 cd         1 MOL       0.000000
     24 C13          2.9850     2.5270    28.1930 c3         1 MOL       0.000000
     25 C14          2.7110     0.1460    25.3200 cc         1 MOL       0.000000
     26 N5           1.5780    -0.2700    26.0050 nc         1 MOL       0.000000
     27 H4          -1.4080    -1.0290    29.7260 ha         1 MOL       0.000000
     28 H5           3.0140    -2.6580    31.0560 ha         1 MOL       0.000000
     29 H6          -7.2350    -4.2660    32.1120 h4         1 MOL       0.000000
     30 H7          -7.3800    -2.3700    30.4740 h4         1 MOL       0.000000
     31 H8           4.2240     1.6460    25.6690 h4         1 MOL       0.000000
     32 H9           3.8760     3.0550    27.9230 h1         1 MOL       0.000000
     33 H10          3.1270     2.0480    29.1390 h1         1 MOL       0.000000
     34 H11          2.1690     3.2160    28.2610 h1         1 MOL       0.000000
     35 H12          3.0330    -0.2590    24.4270 h4         1 MOL       0.000000
@<TRIPOS>BOND
     1     1     8 1   
     2     2     1 ar  
     3     2    11 1   
     4     3     2 ar  
     5     3    27 1   
     6     4     5 ar  
     7     4     3 ar  
     8     5     7 ar  
     9     6     5 1   
    10     7     1 ar  
    11     7    28 1   
    12     8     9 1   
    13     8    10 1   
    14    11    19 2   
    15    12    13 1   
    16    12    11 1   
    17    13    15 1   
    18    14    12 1   
    19    16    18 1   
    20    16    13 2   
    21    17    15 1   
    22    17    29 1   
    23    18    17 2   
    24    18    30 1   
    25    20     4 1   
    26    21    22 1   
    27    21    20 1   
    28    22    24 1   
    29    23    22 1   
    30    23    31 1   
    31    24    32 1   
    32    24    33 1   
    33    24    34 1   
    34    25    23 2   
    35    25    26 1   
    36    25    35 1   
    37    26    21 2   
@<TRIPOS>SUBSTRUCTURE
     1 MOL         1 TEMP              0 ****  ****    0 ROOT
