@<TRIPOS>MOLECULE
LIGAND
   27    28     1     0     0
SMALL
No Charge or Current Charge


@<TRIPOS>ATOM
      1 C           28.3480    46.0370    16.7830 ca         1 UNL      -0.056600
      2 C1          27.8990    45.5320    15.5700 ca         1 UNL      -0.035100
      3 C2          27.8220    44.1470    15.3850 ca         1 UNL       0.105200
      4 C3          28.1930    43.2860    16.4100 ca         1 UNL      -0.033700
      5 S           27.2610    43.4900    13.8470 sy         1 UNL       0.056000
      6 C4          28.6420    43.7900    17.6160 ca         1 UNL      -0.059500
      7 C5          28.7200    45.1740    17.8070 ca         1 UNL      -0.047700
      8 O           27.4850    44.4300    12.7700 o          1 UNL      -0.153300
      9 O1          25.8660    43.1330    13.8730 o          1 UNL      -0.153300
     10 N           28.1050    42.1870    13.5730 n3         1 UNL      -0.203500
     11 C6          28.9650    42.8430    18.7440 c3         1 UNL      -0.066800
     12 C7          29.2110    44.8480    20.1940 c3         1 UNL      -0.088900
     13 C8          29.4880    45.7050    18.9780 c3         1 UNL      -0.042800
     14 N1          29.7000    43.4830    19.8600 n4         1 UNL       0.381900
     15 H           28.4090    47.1150    16.9330 ha         1 UNL       0.062100
     16 H1          27.6080    46.2100    14.7670 ha         1 UNL       0.063700
     17 H2          28.1300    42.2080    16.2620 ha         1 UNL       0.063900
     18 H3          27.6510    41.3540    13.1720 hn         1 UNL       0.144200
     19 H4          29.1110    42.1690    13.7950 hn         1 UNL       0.144200
     20 H5          29.5560    41.9830    18.3980 hx         1 UNL       0.010200
     21 H6          28.0280    42.4530    19.1740 hx         1 UNL       0.010200
     22 H7          28.1380    44.7880    20.4260 hx         1 UNL       0.005700
     23 H8          29.7500    45.1930    21.0870 hx         1 UNL       0.005700
     24 H9          29.1820    46.7400    19.1910 hc         1 UNL       0.029500
     25 H10         30.5700    45.7450    18.7550 hc         1 UNL       0.029500
     26 H11         30.6820    43.5600    19.6290 hn         1 UNL      -0.085500
     27 H12         29.6780    42.8770    20.6710 hn         1 UNL      -0.085500
@<TRIPOS>BOND
     1     1     2 ar  
     2     1     7 ar  
     3     2     3 ar  
     4     3     4 ar  
     5     3     5 1   
     6     4     6 ar  
     7     5     8 2   
     8     5     9 2   
     9     5    10 1   
    10     6     7 ar  
    11     6    11 1   
    12     7    13 1   
    13    11    14 1   
    14    12    13 1   
    15    12    14 1   
    16     1    15 1   
    17     2    16 1   
    18     4    17 1   
    19    10    18 1   
    20    10    19 1   
    21    11    20 1   
    22    11    21 1   
    23    12    22 1   
    24    12    23 1   
    25    13    24 1   
    26    13    25 1   
    27    14    26 1   
    28    14    27 1   
@<TRIPOS>SUBSTRUCTURE
     1 UNL         1 TEMP              0 ****  ****    0 ROOT
