@<TRIPOS>MOLECULE
LIGAND
   37    39     1     0     0
SMALL
No Charge or Current Charge


@<TRIPOS>ATOM
      1 C           15.7490    -9.4330    18.2100 ca         1 UNL       0.016100
      2 H           15.5280    -9.0300    19.1980 ha         1 UNL       0.068300
      3 C1          16.3320   -10.4880    15.6250 ca         1 UNL      -0.043400
      4 H1          16.5490   -10.8990    14.6390 ha         1 UNL       0.062700
      5 C2          16.7090    -8.7860    17.3680 ca         1 UNL       0.136100
      6 C3          15.0900   -10.5960    17.7530 ca         1 UNL       0.126900
      7 C4          15.3760   -11.1360    16.4530 ca         1 UNL      -0.025500
      8 H2          14.8650   -12.0340    16.1050 ha         1 UNL       0.064600
      9 C5          17.0160    -9.3080    16.0570 ca         1 UNL       0.078500
     10 F           16.5590    -2.2600     8.9250 f          1 UNL      -0.202300
     11 F1          14.1880   -11.1810    18.5750 f          1 UNL      -0.205400
     12 C6          18.0090    -8.6890    15.1130 c          1 UNL       0.247900
     13 C7          18.1820    -5.8950    13.3140 cc         1 UNL       0.096800
     14 F2          13.9470    -5.4410    11.4080 f          1 UNL      -0.204200
     15 O           17.4100    -7.6270    17.7340 os         1 UNL      -0.479800
     16 O1          18.5170    -9.3520    14.1870 o          1 UNL      -0.270100
     17 C8          19.0650    -6.5780    14.3330 c3         1 UNL       0.060700
     18 H3          19.6760    -5.8230    14.8580 h1         1 UNL       0.053200
     19 H4          19.7880    -7.2290    13.8180 h1         1 UNL       0.053200
     20 C9          16.9030    -6.7910    18.7820 c3         1 UNL       0.190100
     21 H5          17.7080    -6.0800    19.0130 h1         1 UNL       0.081700
     22 H6          16.6460    -7.3270    19.7060 h1         1 UNL       0.081700
     23 N           18.6190    -4.9630    12.4760 nd         1 UNL      -0.239300
     24 S           16.5050    -6.3070    13.1860 ss         1 UNL      -0.067500
     25 F3          18.8220    -2.9220    10.3870 f          1 UNL      -0.200200
     26 C10         16.2950    -5.1940    11.9370 ca         1 UNL       0.077400
     27 C11         16.4890    -3.2000     9.8950 ca         1 UNL       0.163300
     28 C12         17.5640    -4.5340    11.6670 ca         1 UNL       0.119200
     29 C13         15.1370    -4.8360    11.1700 ca         1 UNL       0.142000
     30 C14         15.2330    -3.8480    10.1570 ca         1 UNL       0.012900
     31 H7          14.3510    -3.5790     9.5750 ha         1 UNL       0.067600
     32 C15         17.6630    -3.5330    10.6420 ca         1 UNL       0.184900
     33 C16         15.6990    -6.0300    18.2590 c          1 UNL       0.392700
     34 O2          15.3220    -5.7950    17.1080 o          1 UNL      -0.242500
     35 O3          14.9480    -5.5550    19.2740 o          1 UNL      -0.242500
     36 N1          18.3440    -7.3480    15.3130 n          1 UNL      -0.305100
     37 H8          18.0650    -6.8930    16.1940 hn         1 UNL       0.149400
@<TRIPOS>BOND
     1     1     5 ar  
     2     1     6 ar  
     3     1     2 1   
     4     3     7 ar  
     5     3     9 ar  
     6     3     4 1   
     7     5     9 ar  
     8     5    15 1   
     9     6     7 ar  
    10     6    11 1   
    11     7     8 1   
    12     9    12 1   
    13    10    27 1   
    14    12    16 2   
    15    12    36 1   
    16    13    17 1   
    17    13    23 2   
    18    13    24 1   
    19    14    29 1   
    20    15    20 1   
    21    17    36 1   
    22    17    18 1   
    23    17    19 1   
    24    20    33 1   
    25    20    21 1   
    26    20    22 1   
    27    23    28 1   
    28    24    26 1   
    29    25    32 1   
    30    26    28 ar  
    31    26    29 ar  
    32    27    30 ar  
    33    27    32 ar  
    34    28    32 ar  
    35    29    30 ar  
    36    30    31 1   
    37    33    34 1   
    38    33    35 1   
    39    36    37 1   
@<TRIPOS>SUBSTRUCTURE
     1 UNL         1 TEMP              0 ****  ****    0 ROOT
