@<TRIPOS>MOLECULE
LIGAND
   36    35     1     0     0
SMALL
No Charge or Current Charge


@<TRIPOS>ATOM
      1 N1          16.2570    -0.2330    56.1650 n4         1 <1>       0.387100
      2 C1          16.7400    -0.3140    57.5460 c3         1 <1>       0.020600
      3 H1          17.3750     0.5630    57.7480 hx         1 <1>       0.019800
      4 C2          17.5900    -1.5500    57.7510 c          1 <1>       0.342000
      5 O1          17.6820    -2.4220    56.8900 o          1 <1>      -0.248300
      6 C3          15.5190    -0.3280    58.5000 c3         1 <1>      -0.053100
      7 H2          15.9020    -0.7240    59.4600 hc         1 <1>       0.025500
      8 H3          14.7880    -1.0870    58.1840 hc         1 <1>       0.025500
      9 C4          14.9210     1.0660    58.8190 c3         1 <1>      -0.023200
     10 H4          15.6240     1.8810    58.5770 hc         1 <1>       0.029500
     11 H5          14.7820     1.1190    59.9160 hc         1 <1>       0.029500
     12 C5          13.5590     1.3240    58.1530 c3         1 <1>       0.064500
     13 H6          13.6780     1.6610    57.1070 h1         1 <1>       0.065500
     14 H7          12.9980     2.1020    58.6840 h1         1 <1>       0.065500
     15 N2          12.7440     0.0690    58.1450 nh         1 <1>      -0.278600
     16 H8          13.0820    -0.7030    57.5530 hn         1 <1>       0.257800
     17 C6          11.6250    -0.1430    58.8290 cz         1 <1>       0.343300
     18 N3          11.0650     0.7500    59.6270 nh         1 <1>      -0.278600
     19 H9          10.9510     1.7270    59.3230 hn         1 <1>       0.257800
     20 N4          11.0620    -1.3110    58.6820 nh         1 <1>      -0.291700
     21 H10         10.1920    -1.5310    59.1880 hn         1 <1>       0.254600
     22 H11         11.4870    -2.0130    58.0600 hn         1 <1>       0.254600
     23 C7          10.6040     0.3170    60.9710 c3         1 <1>       0.064300
     24 H12         11.3050    -0.4380    61.3600 h1         1 <1>       0.065500
     25 H13          9.6190    -0.1750    60.8770 h1         1 <1>       0.065500
     26 C8          10.5150     1.5410    61.9150 c3         1 <1>      -0.025100
     27 H14          9.7380     1.3610    62.6790 hc         1 <1>       0.029300
     28 H15         10.2220     2.4500    61.3670 hc         1 <1>       0.029300
     29 C9          11.8640     1.7310    62.6530 c3         1 <1>      -0.062400
     30 H16         11.8350     2.5910    63.3420 hc         1 <1>       0.023100
     31 H17         12.1070     0.8380    63.2530 hc         1 <1>       0.023100
     32 H18         12.6920     1.9010    61.9450 hc         1 <1>       0.023100
     33 O2          18.1680    -1.6430    58.8340 o          1 <1>      -0.248300
     34 H19         15.6200     0.4710    55.8570 hn         1 <1>      -0.088900
     35 H20         17.0770    -0.1900    55.5650 hn         1 <1>      -0.088900
     36 H21         15.9550    -1.1780    55.9280 hn         1 <1>      -0.088900
@<TRIPOS>BOND
     1     1     2 1   
     2     2     4 1   
     3     2     6 1   
     4     2     3 1   
     5     4     5 1   
     6     4    33 1   
     7     6     9 1   
     8     6     7 1   
     9     6     8 1   
    10     9    12 1   
    11     9    10 1   
    12     9    11 1   
    13    12    15 1   
    14    12    13 1   
    15    12    14 1   
    16    15    17 2   
    17    15    16 1   
    18    17    18 1   
    19    17    20 1   
    20    18    23 1   
    21    18    19 1   
    22    20    21 1   
    23    20    22 1   
    24    23    26 1   
    25    23    24 1   
    26    23    25 1   
    27    26    29 1   
    28    26    27 1   
    29    26    28 1   
    30    29    30 1   
    31    29    31 1   
    32    29    32 1   
    33     1    34 1   
    34     1    35 1   
    35     1    36 1   
@<TRIPOS>SUBSTRUCTURE
     1 <1>         1 TEMP              0 ****  ****    0 ROOT
