@<TRIPOS>MOLECULE
MOL
   22    21     1     0     0
SMALL
No Charge or Current Charge


@<TRIPOS>ATOM
      1 C1          50.0280    36.2770    10.5890 c3         1 MOL       0.000000
      2 C2          48.6780    35.4990    10.7360 c          1 MOL       0.000000
      3 O1          48.7490    34.2220    10.9960 oh         1 MOL       0.000000
      4 O2          47.6020    36.0990    10.6350 o          1 MOL       0.000000
      5 O3          49.7840    37.6880    10.9140 oh         1 MOL       0.000000
      6 H1          50.3690    37.9630    11.7150 ho         1 MOL       0.000000
      7 C3          50.6230    36.1470     9.1190 c3         1 MOL       0.000000
      8 C4          50.4270    34.7360     8.5690 c3         1 MOL       0.000000
      9 C5          49.9890    37.1640     8.1900 c3         1 MOL       0.000000
     10 C6          52.1400    36.4240     9.2610 c3         1 MOL       0.000000
     11 O4          52.4040    37.2750    10.3640 oh         1 MOL       0.000000
     12 H2          52.4610    36.7140    11.2250 ho         1 MOL       0.000000
     13 H3          50.7490    35.8560    11.2590 h1         1 MOL       0.000000
     14 H4          49.5850    33.8040    11.0650 ho         1 MOL       0.000000
     15 H5          50.8360    34.6780     7.5820 hc         1 MOL       0.000000
     16 H6          49.3820    34.5080     8.5370 hc         1 MOL       0.000000
     17 H7          50.9260    34.0330     9.2030 hc         1 MOL       0.000000
     18 H8          50.4040    37.0580     7.2090 hc         1 MOL       0.000000
     19 H9          50.1840    38.1510     8.5550 hc         1 MOL       0.000000
     20 H10         48.9320    37.0010     8.1500 hc         1 MOL       0.000000
     21 H11         52.4950    36.8920     8.3660 h1         1 MOL       0.000000
     22 H12         52.6410    35.4930     9.4240 h1         1 MOL       0.000000
@<TRIPOS>BOND
     1     1     2 1   
     2     1     5 1   
     3     1    13 1   
     4     2     3 1   
     5     3    14 1   
     6     4     2 2   
     7     5     6 1   
     8     7    10 1   
     9     7     1 1   
    10     8     7 1   
    11     8    15 1   
    12     8    16 1   
    13     8    17 1   
    14     9     7 1   
    15     9    18 1   
    16     9    19 1   
    17     9    20 1   
    18    10    11 1   
    19    10    21 1   
    20    10    22 1   
    21    11    12 1   
@<TRIPOS>SUBSTRUCTURE
     1 MOL         1 TEMP              0 ****  ****    0 ROOT
