@<TRIPOS>MOLECULE
MOL
   54    58     1     0     0
SMALL
No Charge or Current Charge


@<TRIPOS>ATOM
      1 O1          78.9600    75.2580   100.8290 o          1 MOL       0.000000
      2 C1          78.5270    75.0580    99.7080 c          1 MOL       0.000000
      3 N1          79.2050    74.2490    98.7690 n          1 MOL       0.000000
      4 C2          78.3890    74.0260    97.6220 c          1 MOL       0.000000
      5 O2          78.7190    73.3750    96.6430 o          1 MOL       0.000000
      6 C3          77.1060    74.6940    97.8200 c3         1 MOL       0.000000
      7 C4          75.9550    73.7960    98.2720 c3         1 MOL       0.000000
      8 N2          75.7050    73.7920    99.7890 n3         1 MOL       0.000000
      9 C5          74.2300    73.5780    99.8390 c3         1 MOL       0.000000
     10 C6          73.8930    72.8340    98.5060 c3         1 MOL       0.000000
     11 C7          74.7400    73.5810    97.4660 c3         1 MOL       0.000000
     12 C8          76.0290    75.2710    99.9850 c3         1 MOL       0.000000
     13 C9          77.2530    75.5350    99.1280 c3         1 MOL       0.000000
     14 C10         75.9960    75.7790   101.3950 ca         1 MOL       0.000000
     15 C11         75.8750    77.1510   101.5900 ca         1 MOL       0.000000
     16 C12         75.7790    77.6650   102.8760 ca         1 MOL       0.000000
     17 C13         75.8130    76.7650   103.9780 ca         1 MOL       0.000000
     18 C14         75.9290    75.3840   103.7870 ca         1 MOL       0.000000
     19 C15         76.0210    74.8760   102.4870 ca         1 MOL       0.000000
     20 C16         75.7260    77.3250   105.3160 ce         1 MOL       0.000000
     21 N3          76.1070    76.6410   106.4250 nh         1 MOL       0.000000
     22 H1          76.0270    77.0790   107.3530 hn         1 MOL       0.000000
     23 H2          76.4760    75.6830   106.3360 hn         1 MOL       0.000000
     24 N4          75.2470    78.5760   105.5370 nh         1 MOL       0.000000
     25 H3          75.8710    79.3100   105.9040 hn         1 MOL       0.000000
     26 H4          74.2600    78.7930   105.3380 hn         1 MOL       0.000000
     27 C17         80.4520    73.5690    99.1170 c3         1 MOL       0.000000
     28 C18         81.6300    74.4150    98.7190 ca         1 MOL       0.000000
     29 C19         82.9270    73.9870    99.0620 ca         1 MOL       0.000000
     30 C20         84.0240    74.7510    98.6660 ca         1 MOL       0.000000
     31 C21         83.7880    75.9260    97.9390 ca         1 MOL       0.000000
     32 F1          84.8880    76.6050    97.5700 f          1 MOL       0.000000
     33 C22         82.5180    76.4030    97.5840 ca         1 MOL       0.000000
     34 C23         81.4140    75.6150    97.9960 ca         1 MOL       0.000000
     35 H5          76.9000    75.1690    96.8840 hc         1 MOL       0.000000
     36 H6          76.4380    72.8890    97.9740 h1         1 MOL       0.000000
     37 H7          73.9640    72.9780   100.6840 h1         1 MOL       0.000000
     38 H8          73.6900    74.4960    99.9380 h1         1 MOL       0.000000
     39 H9          74.1730    71.8030    98.5600 hc         1 MOL       0.000000
     40 H10         72.8480    72.8350    98.2760 hc         1 MOL       0.000000
     41 H11         74.9330    72.9820    96.6000 hc         1 MOL       0.000000
     42 H12         74.2950    74.4650    97.0580 hc         1 MOL       0.000000
     43 H13         75.2360    75.9030    99.6420 h1         1 MOL       0.000000
     44 H14         77.2930    76.5970    99.0050 hc         1 MOL       0.000000
     45 H15         75.8570    77.7870   100.7780 ha         1 MOL       0.000000
     46 H16         75.6850    78.6810   103.0300 ha         1 MOL       0.000000
     47 H17         75.9470    74.7460   104.5980 ha         1 MOL       0.000000
     48 H18         76.1060    73.8600   102.3260 ha         1 MOL       0.000000
     49 H19         80.4790    73.3980   100.1730 h1         1 MOL       0.000000
     50 H20         80.4990    72.6350    98.5960 h1         1 MOL       0.000000
     51 H21         83.0640    73.1170    99.6010 ha         1 MOL       0.000000
     52 H22         84.9850    74.4590    98.9020 ha         1 MOL       0.000000
     53 H23         82.3940    77.2790    97.0520 ha         1 MOL       0.000000
     54 H24         80.4530    75.9150    97.7690 ha         1 MOL       0.000000
@<TRIPOS>BOND
     1     2     1 2   
     2     3    27 1   
     3     3     2 1   
     4     4     6 1   
     5     4     3 1   
     6     5     4 2   
     7     6     7 1   
     8     6    35 1   
     9     7     8 1   
    10     7    36 1   
    11     8     9 1   
    12     8    12 1   
    13     9    37 1   
    14     9    38 1   
    15    10     9 1   
    16    10    39 1   
    17    10    40 1   
    18    11     7 1   
    19    11    10 1   
    20    11    41 1   
    21    11    42 1   
    22    12    13 1   
    23    12    14 1   
    24    12    43 1   
    25    13     6 1   
    26    13     2 1   
    27    13    44 1   
    28    14    15 ar  
    29    14    19 ar  
    30    15    16 ar  
    31    15    45 1   
    32    16    17 ar  
    33    16    46 1   
    34    17    20 1   
    35    18    17 ar  
    36    18    47 1   
    37    19    18 ar  
    38    19    48 1   
    39    20    24 1   
    40    20    21 2   
    41    21    22 1   
    42    23    21 1   
    43    24    25 1   
    44    26    24 1   
    45    27    49 1   
    46    27    50 1   
    47    28    29 ar  
    48    28    27 1   
    49    29    51 1   
    50    30    29 ar  
    51    30    52 1   
    52    31    30 ar  
    53    32    31 1   
    54    33    31 ar  
    55    33    34 ar  
    56    33    53 1   
    57    34    28 ar  
    58    34    54 1   
@<TRIPOS>SUBSTRUCTURE
     1 MOL         1 TEMP              0 ****  ****    0 ROOT
