@<TRIPOS>MOLECULE
LIGAND
   52    54     1     0     0
SMALL
No Charge or Current Charge


@<TRIPOS>ATOM
      1 N           66.9780    39.8920    23.3300 nc         0 UNK      -0.234000
      2 C           67.3880    39.2730    24.4780 cd         0 UNK       0.107200
      3 C1          67.7840    37.8630    24.4860 c3         0 UNK      -0.006400
      4 N1          67.4330    39.9620    25.6440 n          0 UNK      -0.310600
      5 C2          67.0840    41.2730    25.7090 c          0 UNK       0.259200
      6 O           67.1330    41.8990    26.9260 o          0 UNK      -0.267200
      7 C3          66.6680    41.9700    24.5500 ca         0 UNK       0.065000
      8 C4          66.3300    43.3470    24.5560 ca         0 UNK      -0.042700
      9 C5          65.9320    44.0100    23.3390 ca         0 UNK      -0.029300
     10 C6          65.8690    43.2550    22.1270 ca         0 UNK      -0.055000
     11 C7          66.2110    41.8680    22.1190 ca         0 UNK      -0.035200
     12 C8          66.6210    41.2130    23.3270 ca         0 UNK       0.078100
     13 C9          65.5960    45.4730    23.2820 c3         0 UNK       0.037400
     14 N2          65.7090    46.2410    24.5570 nh         0 UNK      -0.323300
     15 C10         69.3670    46.7260    25.8120 cc         0 UNK       0.075600
     16 S           68.4770    46.0440    24.5450 ss         0 UNK      -0.069100
     17 C11         66.9250    46.5230    25.1630 cc         0 UNK       0.068700
     18 C12         67.0930    47.2120    26.3510 cd         0 UNK      -0.032600
     19 C13         68.5440    47.3340    26.7360 cd         0 UNK      -0.040700
     20 C14         70.8160    46.6910    25.9020 c          0 UNK       0.251400
     21 O1          71.4640    46.1100    25.0170 o          0 UNK      -0.269600
     22 N           71.4040    47.2920    26.9430 n          1 GLU      -0.297800
     23 CA          72.8700    47.3480    27.1840 c3         1 GLU       0.125400
     24 CB          73.5690    48.6320    26.7310 c3         1 GLU      -0.013700
     25 CG          73.1130    49.4580    25.5580 c3         1 GLU       0.051400
     26 CD          74.2150    50.4540    25.1820 c          1 GLU       0.356100
     27 OE1         74.8320    51.0630    26.0680 o          1 GLU      -0.246400
     28 OE2         74.4740    50.6460    23.9890 o          1 GLU      -0.246400
     29 C           73.0750    47.2200    28.6850 c          1 GLU       0.375900
     30 O           72.1410    47.5200    29.4490 o          1 GLU      -0.244300
     31 OXT         74.1640    46.8260    29.1040 o          1 GLU      -0.244300
     32 C15         64.4420    46.6850    25.1540 c3         0 UNK       0.001500
     33 H           67.1340    37.2680    25.1460 hc         0 UNK       0.030700
     34 H1          67.7250    37.4180    23.4800 hc         0 UNK       0.030700
     35 H2          68.8210    37.7420    24.8350 hc         0 UNK       0.030700
     36 H3          67.7390    39.4800    26.5010 hn         0 UNK       0.170000
     37 H4          66.3710    43.9090    25.4890 ha         0 UNK       0.062900
     38 H5          65.5580    43.7410    21.2020 ha         0 UNK       0.062100
     39 H6          66.1600    41.3030    21.1880 ha         0 UNK       0.063900
     40 H7          64.5750    45.5970    22.8900 h1         0 UNK       0.051300
     41 H8          66.2530    45.9480    22.5330 h1         0 UNK       0.051300
     42 H9          66.2710    47.6190    26.9400 ha         0 UNK       0.064200
     43 H10         68.8990    47.8400    27.6340 ha         0 UNK       0.063100
     44 H           70.7920    47.7520    27.6320 hn         1 GLU       0.149900
     45 HA          73.3400    46.4980    26.6710 h1         1 GLU       0.061600
     46 HB1         74.6250    48.3510    26.5520 hc         1 GLU       0.029400
     47 HB2         73.6170    49.3200    27.6020 hc         1 GLU       0.029400
     48 HG1         72.1970    50.0110    25.8200 hc         1 GLU       0.038000
     49 HG2         72.8690    48.8400    24.6790 hc         1 GLU       0.038000
     50 H11         64.3230    47.7780    25.0770 h1         0 UNK       0.042800
     51 H12         63.5940    46.2060    24.6470 h1         0 UNK       0.042800
     52 H13         64.3930    46.4030    26.2160 h1         0 UNK       0.042800
@<TRIPOS>BOND
     1     1     2 2   
     2     1    12 1   
     3     2     3 1   
     4     2     4 1   
     5     4     5 1   
     6     5     6 2   
     7     5     7 1   
     8     7     8 ar  
     9     7    12 ar  
    10     8     9 ar  
    11     9    10 ar  
    12     9    13 1   
    13    10    11 ar  
    14    11    12 ar  
    15    13    14 1   
    16    14    17 1   
    17    14    32 1   
    18    15    16 1   
    19    15    19 2   
    20    15    20 1   
    21    16    17 1   
    22    17    18 2   
    23    18    19 1   
    24    20    21 2   
    25    20    22 1   
    26    22    23 1   
    27    23    24 1   
    28    23    29 1   
    29    24    25 1   
    30    25    26 1   
    31    26    27 1   
    32    26    28 1   
    33    29    30 1   
    34    29    31 1   
    35     3    33 1   
    36     3    34 1   
    37     3    35 1   
    38     4    36 1   
    39     8    37 1   
    40    10    38 1   
    41    11    39 1   
    42    13    40 1   
    43    13    41 1   
    44    18    42 1   
    45    19    43 1   
    46    22    44 1   
    47    23    45 1   
    48    24    46 1   
    49    24    47 1   
    50    25    48 1   
    51    25    49 1   
    52    32    50 1   
    53    32    51 1   
    54    32    52 1   
@<TRIPOS>SUBSTRUCTURE
     1 UNK         1 TEMP              0 ****  ****    0 ROOT
