@<TRIPOS>MOLECULE
MOL
   69    73     1     0     0
SMALL
No Charge or Current Charge


@<TRIPOS>ATOM
      1 C1          84.5970     8.0760    38.2400 ca         1 MOL       0.000000
      2 C2          85.7790     7.3390    38.2900 ca         1 MOL       0.000000
      3 C3          85.9880     6.3130    37.3750 ca         1 MOL       0.000000
      4 C4          85.0280     6.0190    36.4050 ca         1 MOL       0.000000
      5 C5          83.8430     6.7510    36.3530 ca         1 MOL       0.000000
      6 C6          83.6420     7.7930    37.2610 ca         1 MOL       0.000000
      7 C7          86.8440     7.6340    39.3230 c3         1 MOL       0.000000
      8 N1          82.9330     6.4260    35.3340 n          1 MOL       0.000000
      9 C8          81.8410     5.6820    35.4880 c          1 MOL       0.000000
     10 O1          81.5380     5.1750    36.5460 o          1 MOL       0.000000
     11 H1          83.1260     6.7940    34.3910 hn         1 MOL       0.000000
     12 C9          80.9430     5.4840    34.3080 ca         1 MOL       0.000000
     13 C10         80.9170     4.2440    33.6700 ca         1 MOL       0.000000
     14 C11         80.0790     4.0560    32.5750 ca         1 MOL       0.000000
     15 C12         79.2750     5.1070    32.1330 ca         1 MOL       0.000000
     16 C13         79.2910     6.3440    32.7740 ca         1 MOL       0.000000
     17 C14         80.1290     6.5250    33.8710 ca         1 MOL       0.000000
     18 C15         78.3620     4.8900    30.9530 c3         1 MOL       0.000000
     19 N2          78.7430     5.6620    29.7780 n3         1 MOL       0.000000
     20 C16         79.5070     4.9520    28.7570 c3         1 MOL       0.000000
     21 C17         80.0470     5.9600    27.7530 c3         1 MOL       0.000000
     22 N3          78.9170     6.7380    27.2650 n4         1 MOL       0.000000
     23 C18         79.1890     7.4570    26.0240 c3         1 MOL       0.000000
     24 C19         78.1060     7.4670    28.2340 c3         1 MOL       0.000000
     25 H2          78.2820     6.0160    26.9480 hn         1 MOL       0.000000
     26 C20         77.6510     6.5270    29.3410 c3         1 MOL       0.000000
     27 N4          84.3950     9.0950    39.1120 nh         1 MOL       0.000000
     28 H3          85.1370     9.8030    39.2120 hn         1 MOL       0.000000
     29 C21         83.2820     9.2340    39.8530 ca         1 MOL       0.000000
     30 N5          83.3120     9.2500    41.2090 nb         1 MOL       0.000000
     31 C22         82.1710     9.3840    41.9080 ca         1 MOL       0.000000
     32 C23         80.9490     9.4980    41.2490 ca         1 MOL       0.000000
     33 C24         80.9480     9.4530    39.8550 cp         1 MOL       0.000000
     34 N6          82.1100     9.3220    39.1880 nb         1 MOL       0.000000
     35 C25         79.6920     9.5430    39.0790 cp         1 MOL       0.000000
     36 C26         78.5010     9.9140    39.7020 ca         1 MOL       0.000000
     37 C27         77.3310     9.9830    38.9430 ca         1 MOL       0.000000
     38 C28         77.4000     9.6640    37.5910 ca         1 MOL       0.000000
     39 N7          78.5650     9.2960    37.0190 nb         1 MOL       0.000000
     40 C29         79.7070     9.2310    37.7230 ca         1 MOL       0.000000
     41 H4          86.8610     5.7640    37.4130 ha         1 MOL       0.000000
     42 H5          85.1960     5.2600    35.7270 ha         1 MOL       0.000000
     43 H6          82.7810     8.3590    37.2080 ha         1 MOL       0.000000
     44 H7          87.6650     6.9600    39.1910 hc         1 MOL       0.000000
     45 H8          86.4340     7.5090    40.3030 hc         1 MOL       0.000000
     46 H9          87.1860     8.6410    39.2050 hc         1 MOL       0.000000
     47 H10         81.5140     3.4730    34.0070 ha         1 MOL       0.000000
     48 H11         80.0520     3.1440    32.0930 ha         1 MOL       0.000000
     49 H12         78.6910     7.1140    32.4410 ha         1 MOL       0.000000
     50 H13         80.1470     7.4330    34.3610 ha         1 MOL       0.000000
     51 H14         78.3800     3.8510    30.6970 h1         1 MOL       0.000000
     52 H15         77.3860     5.2180    31.2440 h1         1 MOL       0.000000
     53 H16         80.3210     4.4310    29.2160 h1         1 MOL       0.000000
     54 H17         78.8760     4.2470    28.2580 h1         1 MOL       0.000000
     55 H18         80.7570     6.6050    28.2280 hx         1 MOL       0.000000
     56 H19         80.5390     5.4610    26.9440 hx         1 MOL       0.000000
     57 H20         79.7870     6.8450    25.3810 hx         1 MOL       0.000000
     58 H21         79.7150     8.3630    26.2440 hx         1 MOL       0.000000
     59 H22         78.2650     7.6900    25.5370 hx         1 MOL       0.000000
     60 H23         77.2490     7.8770    27.7420 hx         1 MOL       0.000000
     61 H24         78.6910     8.2560    28.6600 hx         1 MOL       0.000000
     62 H25         76.8490     5.9200    28.9760 h1         1 MOL       0.000000
     63 H26         77.3290     7.1150    30.1750 h1         1 MOL       0.000000
     64 H27         82.2010     9.4020    42.9390 h4         1 MOL       0.000000
     65 H28         80.0700     9.6130    41.7770 ha         1 MOL       0.000000
     66 H29         78.4840    10.1340    40.7100 ha         1 MOL       0.000000
     67 H30         76.4370    10.2640    39.3750 ha         1 MOL       0.000000
     68 H31         76.5450     9.7100    37.0150 h4         1 MOL       0.000000
     69 H32         80.5880     8.9520    37.2630 h4         1 MOL       0.000000
@<TRIPOS>BOND
     1     1     2 ar  
     2     1    27 1   
     3     2     7 1   
     4     3     2 ar  
     5     3    41 1   
     6     4     3 ar  
     7     4    42 1   
     8     5     4 ar  
     9     5     6 ar  
    10     6     1 ar  
    11     6    43 1   
    12     7    44 1   
    13     7    45 1   
    14     7    46 1   
    15     8     9 1   
    16     8     5 1   
    17     9    10 2   
    18    11     8 1   
    19    12     9 1   
    20    13    12 ar  
    21    13    47 1   
    22    14    13 ar  
    23    14    48 1   
    24    15    14 ar  
    25    15    16 ar  
    26    16    17 ar  
    27    16    49 1   
    28    17    12 ar  
    29    17    50 1   
    30    18    15 1   
    31    18    51 1   
    32    18    52 1   
    33    19    18 1   
    34    20    19 1   
    35    20    53 1   
    36    20    54 1   
    37    21    20 1   
    38    21    55 1   
    39    21    56 1   
    40    22    21 1   
    41    22    24 1   
    42    23    22 1   
    43    23    57 1   
    44    23    58 1   
    45    23    59 1   
    46    24    26 1   
    47    24    60 1   
    48    24    61 1   
    49    25    22 1   
    50    26    19 1   
    51    26    62 1   
    52    26    63 1   
    53    27    28 1   
    54    27    29 1   
    55    29    30 ar  
    56    30    31 ar  
    57    31    64 1   
    58    32    31 ar  
    59    32    65 1   
    60    33    32 ar  
    61    34    29 ar  
    62    34    33 ar  
    63    35    36 ar  
    64    35    33 1   
    65    36    66 1   
    66    37    36 ar  
    67    37    67 1   
    68    38    37 ar  
    69    38    68 1   
    70    39    38 ar  
    71    39    40 ar  
    72    40    35 ar  
    73    40    69 1   
@<TRIPOS>SUBSTRUCTURE
     1 MOL         1 TEMP              0 ****  ****    0 ROOT
