@<TRIPOS>MOLECULE
LIGAND
   45    47     1     0     0
SMALL
No Charge or Current Charge


@<TRIPOS>ATOM
      1 C           35.0300     5.5210    21.5590 c3         1 UNL       0.078800
      2 H           35.9040     5.0370    21.1020 h1         1 UNL       0.066000
      3 H1          34.2500     4.7600    21.7100 h1         1 UNL       0.066000
      4 H2          34.6650     6.3000    20.8720 h1         1 UNL       0.066000
      5 O           35.4700     6.0780    22.7990 os         1 UNL      -0.495100
      6 C1          34.4740     6.6820    23.5620 ca         1 UNL       0.120100
      7 C2          33.1400     6.8550    23.1240 ca         1 UNL      -0.019400
      8 H3          32.8400     6.5190    22.1310 ha         1 UNL       0.065400
      9 C3          32.1930     7.4710    23.9890 ca         1 UNL      -0.050400
     10 H4          31.1590     7.5850    23.6630 ha         1 UNL       0.062500
     11 C4          34.8200     7.1250    24.8320 ca         1 UNL      -0.019400
     12 H5          35.8410     6.9790    25.1830 ha         1 UNL       0.065400
     13 C5          33.8950     7.7530    25.6730 ca         1 UNL      -0.050400
     14 H6          34.2090     8.1020    26.6570 ha         1 UNL       0.062500
     15 C6          32.5790     7.9360    25.2640 ca         1 UNL      -0.013400
     16 C7          31.6570     8.5710    26.1310 cc         1 UNL       0.039700
     17 C8          31.3230     8.1960    27.4090 cc         1 UNL       0.155100
     18 C9          31.8440     7.0080    28.2280 c          1 UNL       0.264800
     19 O1          32.3840     6.0480    27.7010 o          1 UNL      -0.268400
     20 N           31.6730     7.1410    29.5480 n          1 UNL      -0.310300
     21 H7          31.2510     8.0170    29.8870 hn         1 UNL       0.149000
     22 C10         32.0460     6.1200    30.5660 c3         1 UNL       0.009100
     23 H8          31.3140     5.2940    30.5500 h1         1 UNL       0.045900
     24 H9          31.9740     6.6130    31.5490 h1         1 UNL       0.045900
     25 C11         33.4590     5.5720    30.3570 c3         1 UNL      -0.049500
     26 H10         33.7650     5.0150    31.2560 hc         1 UNL       0.024500
     27 H11         33.5310     4.8740    29.5090 hc         1 UNL       0.024500
     28 H12         34.1820     6.3860    30.1950 hc         1 UNL       0.024500
     29 N1          30.4190     9.0730    27.8520 nd         1 UNL      -0.168000
     30 N2          30.1470     9.9480    26.9810 na         1 UNL      -0.275500
     31 H13         29.4570    10.7040    27.0960 hn         1 UNL       0.188900
     32 C12         30.8870     9.7460    25.8920 cd         1 UNL       0.077700
     33 C13         30.8960    10.5090    24.7240 ca         1 UNL       0.043400
     34 C14         32.0850    11.0070    24.2240 ca         1 UNL      -0.027200
     35 H14         33.0210    10.7890    24.7390 ha         1 UNL       0.064100
     36 C15         32.0980    11.7910    23.0590 ca         1 UNL       0.083100
     37 Cl          33.5840    12.4180    22.4400 cl         1 UNL      -0.079700
     38 C16         30.9090    12.0920    22.4120 ca         1 UNL       0.138600
     39 O2          30.9180    12.8280    21.2740 oh         1 UNL      -0.505200
     40 H15         31.4480    13.6970    21.4310 ho         1 UNL       0.292200
     41 C17         29.7020    11.5950    22.9230 ca         1 UNL       0.023400
     42 H16         28.7640    11.8020    22.4080 ha         1 UNL       0.069100
     43 C18         29.7050    10.8360    24.0920 ca         1 UNL       0.129600
     44 O3          28.5470    10.3880    24.5870 oh         1 UNL      -0.506000
     45 H17         27.9240    11.1850    24.7790 ho         1 UNL       0.292200
@<TRIPOS>BOND
     1     1     5 1   
     2     1     2 1   
     3     1     3 1   
     4     1     4 1   
     5     5     6 1   
     6     6     7 ar  
     7     6    11 ar  
     8     7     9 ar  
     9     7     8 1   
    10     9    15 ar  
    11     9    10 1   
    12    11    13 ar  
    13    11    12 1   
    14    13    15 ar  
    15    13    14 1   
    16    15    16 1   
    17    16    17 1   
    18    16    32 2   
    19    17    18 1   
    20    17    29 2   
    21    18    19 2   
    22    18    20 1   
    23    20    22 1   
    24    20    21 1   
    25    22    25 1   
    26    22    23 1   
    27    22    24 1   
    28    25    26 1   
    29    25    27 1   
    30    25    28 1   
    31    29    30 1   
    32    30    32 1   
    33    30    31 1   
    34    32    33 1   
    35    33    34 ar  
    36    33    43 ar  
    37    34    36 ar  
    38    34    35 1   
    39    36    37 1   
    40    36    38 ar  
    41    38    39 1   
    42    38    41 ar  
    43    39    40 1   
    44    41    43 ar  
    45    41    42 1   
    46    43    44 1   
    47    44    45 1   
@<TRIPOS>SUBSTRUCTURE
     1 UNL         1 TEMP              0 ****  ****    0 ROOT
