@<TRIPOS>MOLECULE
MOL
   57    60     1     0     0
SMALL
No Charge or Current Charge


@<TRIPOS>ATOM
      1 C1          67.1590    41.9680    28.9190 c2         1 MOL       0.000000
      2 C2          68.2870    41.7360    28.2580 ce         1 MOL       0.000000
      3 C3          69.2380    42.8780    28.0640 c          1 MOL       0.000000
      4 C4          68.8120    44.2420    28.5200 ce         1 MOL       0.000000
      5 C5          67.6620    44.4000    29.1710 c2         1 MOL       0.000000
      6 C6          67.3000    45.7960    29.5830 c3         1 MOL       0.000000
      7 C7          65.9040    46.1330    29.0670 c3         1 MOL       0.000000
      8 C8          64.8780    45.0410    29.3530 c3         1 MOL       0.000000
      9 C9          65.3300    43.6330    28.9640 c3         1 MOL       0.000000
     10 C10         66.7160    43.2790    29.5050 c3         1 MOL       0.000000
     11 C11         64.2610    42.5480    29.0900 c3         1 MOL       0.000000
     12 C12         62.8490    42.9550    28.6800 c3         1 MOL       0.000000
     13 C13         62.4420    44.3100    29.2580 c3         1 MOL       0.000000
     14 C14         63.4780    45.3500    28.8300 c3         1 MOL       0.000000
     15 C15         62.8280    46.7100    29.0650 c3         1 MOL       0.000000
     16 C16         61.3450    46.4480    28.8170 c3         1 MOL       0.000000
     17 C17         61.2080    44.9410    28.6130 c3         1 MOL       0.000000
     18 C18         62.2550    44.2020    30.7700 c3         1 MOL       0.000000
     19 C19         66.7570    43.0790    31.0180 c3         1 MOL       0.000000
     20 C20         60.8150    47.3320    27.6930 c3         1 MOL       0.000000
     21 F1          65.4870    43.6990    27.6110 f          1 MOL       0.000000
     22 O1          70.3370    42.6970    27.5470 o          1 MOL       0.000000
     23 C21         59.8880    44.3870    29.1270 c          1 MOL       0.000000
     24 O2          59.7220    43.1740    29.2340 o          1 MOL       0.000000
     25 C22         58.7200    45.2800    29.5130 c3         1 MOL       0.000000
     26 O3          57.8760    45.4860    28.3910 oh         1 MOL       0.000000
     27 H1          58.4430    45.7890    27.5860 ho         1 MOL       0.000000
     28 O4          61.2280    44.7120    27.2110 oh         1 MOL       0.000000
     29 H2          61.4150    43.7160    27.0290 ho         1 MOL       0.000000
     30 O5          64.1740    42.1120    30.4390 oh         1 MOL       0.000000
     31 H3          63.7900    41.1560    30.4680 ho         1 MOL       0.000000
     32 H4          66.5210    41.1660    29.0430 ha         1 MOL       0.000000
     33 H5          68.5030    40.7970    27.8890 ha         1 MOL       0.000000
     34 H6          69.4120    45.0600    28.3280 ha         1 MOL       0.000000
     35 H7          67.3120    45.8670    30.6510 hc         1 MOL       0.000000
     36 H8          68.0080    46.4840    29.1710 hc         1 MOL       0.000000
     37 H9          65.5770    47.0380    29.5360 hc         1 MOL       0.000000
     38 H10         65.9740    46.2340    28.0040 hc         1 MOL       0.000000
     39 H11         64.8090    45.0440    30.4210 hc         1 MOL       0.000000
     40 H12         64.5870    41.7880    28.4110 h1         1 MOL       0.000000
     41 H13         62.1620    42.2120    29.0290 hc         1 MOL       0.000000
     42 H14         62.8300    43.0360    27.6130 hc         1 MOL       0.000000
     43 H15         63.7270    45.3380    27.7900 hc         1 MOL       0.000000
     44 H16         62.9940    47.0440    30.0680 hc         1 MOL       0.000000
     45 H17         63.2260    47.4750    28.4320 hc         1 MOL       0.000000
     46 H18         60.7220    46.7230    29.6420 hc         1 MOL       0.000000
     47 H19         61.5180    43.4570    30.9860 hc         1 MOL       0.000000
     48 H20         61.9330    45.1460    31.1580 hc         1 MOL       0.000000
     49 H21         63.1840    43.9280    31.2260 hc         1 MOL       0.000000
     50 H22         66.0930    42.2860    31.2910 hc         1 MOL       0.000000
     51 H23         66.4540    43.9820    31.5060 hc         1 MOL       0.000000
     52 H24         67.7530    42.8290    31.3180 hc         1 MOL       0.000000
     53 H25         61.3710    47.1430    26.7980 hc         1 MOL       0.000000
     54 H26         60.9210    48.3610    27.9680 hc         1 MOL       0.000000
     55 H27         59.7820    47.1120    27.5240 hc         1 MOL       0.000000
     56 H28         58.1600    44.8130    30.2960 h1         1 MOL       0.000000
     57 H29         59.0950    46.2240    29.8490 h1         1 MOL       0.000000
@<TRIPOS>BOND
     1     1    10 1   
     2     1    32 1   
     3     2     1 2   
     4     2    33 1   
     5     3     2 1   
     6     3     4 1   
     7     4     5 2   
     8     4    34 1   
     9     5    10 1   
    10     5     6 1   
    11     6    35 1   
    12     6    36 1   
    13     7     8 1   
    14     7     6 1   
    15     7    37 1   
    16     7    38 1   
    17     8    14 1   
    18     8    39 1   
    19     9    11 1   
    20     9     8 1   
    21    10     9 1   
    22    10    19 1   
    23    11    30 1   
    24    11    40 1   
    25    12    11 1   
    26    12    13 1   
    27    12    41 1   
    28    12    42 1   
    29    13    17 1   
    30    13    18 1   
    31    14    15 1   
    32    14    13 1   
    33    14    43 1   
    34    15    44 1   
    35    15    45 1   
    36    16    17 1   
    37    16    15 1   
    38    16    46 1   
    39    17    28 1   
    40    17    23 1   
    41    18    47 1   
    42    18    48 1   
    43    18    49 1   
    44    19    50 1   
    45    19    51 1   
    46    19    52 1   
    47    20    16 1   
    48    20    53 1   
    49    20    54 1   
    50    20    55 1   
    51    21     9 1   
    52    22     3 2   
    53    23    24 2   
    54    23    25 1   
    55    25    56 1   
    56    25    57 1   
    57    26    25 1   
    58    27    26 1   
    59    29    28 1   
    60    30    31 1   
@<TRIPOS>SUBSTRUCTURE
     1 MOL         1 TEMP              0 ****  ****    0 ROOT
