@<TRIPOS>MOLECULE
MOL
   44    44     1     0     0
SMALL
No Charge or Current Charge


@<TRIPOS>ATOM
      1 O1          15.8230    13.4260    39.6080 o          1 MOL       0.000000
      2 C1          15.1010    13.2420    40.5600 c          1 MOL       0.000000
      3 N1          13.7480    13.5210    40.7810 n          1 MOL       0.000000
      4 C2          12.8540    14.4620    40.1730 c1         1 MOL       0.000000
      5 H1          13.4240    15.1450    39.5230 ha         1 MOL       0.000000
      6 C3          12.2950    15.2440    41.3830 c3         1 MOL       0.000000
      7 C4          10.9170    14.7430    41.8960 c3         1 MOL       0.000000
      8 C5          12.1290    16.7520    41.1040 c3         1 MOL       0.000000
      9 S1          13.5620    15.0330    42.6840 s4         1 MOL       0.000000
     10 C6          13.8980    13.3180    42.2080 cy         1 MOL       0.000000
     11 C7          15.3070    12.7440    41.9730 cy         1 MOL       0.000000
     12 O2          14.8420    15.6770    42.3070 o          1 MOL       0.000000
     13 N2          16.4430    13.3520    42.6070 n          1 MOL       0.000000
     14 C8          17.6840    12.8090    42.5870 c          1 MOL       0.000000
     15 O3          18.0780    11.7520    42.0970 o          1 MOL       0.000000
     16 H2          16.2390    14.2600    43.0120 hn         1 MOL       0.000000
     17 C9          18.7300    13.6460    43.3220 c3         1 MOL       0.000000
     18 C10         19.7300    14.2070    42.3180 ca         1 MOL       0.000000
     19 C11         19.4000    14.4250    40.9880 ca         1 MOL       0.000000
     20 C12         20.3090    15.0590    40.1360 ca         1 MOL       0.000000
     21 C13         21.5890    15.3950    40.6030 ca         1 MOL       0.000000
     22 C14         21.9510    15.1470    41.9300 ca         1 MOL       0.000000
     23 C15         20.9980    14.5750    42.7720 ca         1 MOL       0.000000
     24 C16         11.7720    13.7990    39.3080 c          1 MOL       0.000000
     25 O4          11.0300    14.3800    38.5780 o          1 MOL       0.000000
     26 O5          11.8230    12.4470    39.4820 oh         1 MOL       0.000000
     27 H3          12.6000    14.6990    40.5140 h1         1 MOL       0.000000
     28 H4          10.6350    15.3020    42.7640 hc         1 MOL       0.000000
     29 H5          10.9860    13.7050    42.1470 hc         1 MOL       0.000000
     30 H6          10.1810    14.8770    41.1310 hc         1 MOL       0.000000
     31 H7          11.8250    17.2490    42.0010 hc         1 MOL       0.000000
     32 H8          11.3860    16.8950    40.3470 hc         1 MOL       0.000000
     33 H9          13.0610    17.1580    40.7700 hc         1 MOL       0.000000
     34 H10         13.3790    12.7260    42.9330 h2         1 MOL       0.000000
     35 H11         15.5380    11.7440    42.2750 h1         1 MOL       0.000000
     36 H12         18.2470    14.4530    43.8330 hc         1 MOL       0.000000
     37 H13         19.2440    13.0310    44.0310 hc         1 MOL       0.000000
     38 H14         18.4830    14.1190    40.6270 ha         1 MOL       0.000000
     39 H15         20.0390    15.2800    39.1650 ha         1 MOL       0.000000
     40 H16         22.2700    15.8290    39.9600 ha         1 MOL       0.000000
     41 H17         22.8950    15.3800    42.2760 ha         1 MOL       0.000000
     42 H18         21.2380    14.4180    43.7640 ha         1 MOL       0.000000
     43 H19         12.4340    14.3690    39.8570 h5         1 MOL       0.000000
     44 H20         12.4410    12.0750    40.0800 ho         1 MOL       0.000000
@<TRIPOS>BOND
     1     1     2 2   
     2     2     3 1   
     3     2    11 1   
     4     3    10 1   
     5     4     3 3   
     6     5     4 1   
     7     6     7 1   
     8     6     9 1   
     9     6    27 1   
    10     7    28 1   
    11     7    29 1   
    12     7    30 1   
    13     8     6 1   
    14     8    31 1   
    15     8    32 1   
    16     8    33 1   
    17     9    12 2   
    18    10    11 1   
    19    10     9 1   
    20    10    34 1   
    21    11    13 1   
    22    11    35 1   
    23    13    16 1   
    24    14    13 1   
    25    14    17 1   
    26    15    14 2   
    27    17    36 1   
    28    17    37 1   
    29    18    23 ar  
    30    18    17 1   
    31    19    18 ar  
    32    19    38 1   
    33    20    21 ar  
    34    20    19 ar  
    35    20    39 1   
    36    21    22 ar  
    37    21    40 1   
    38    22    23 ar  
    39    22    41 1   
    40    23    42 1   
    41    24    26 1   
    42    24    43 1   
    43    25    24 2   
    44    26    44 1   
@<TRIPOS>SUBSTRUCTURE
     1 MOL         1 TEMP              0 ****  ****    0 ROOT
