@<TRIPOS>MOLECULE
LIGAND
   70    73     1     0     0
SMALL
No Charge or Current Charge


@<TRIPOS>ATOM
      1 O           17.0960    18.1590    34.7840 oh         1 UNL      -0.391400
      2 H           17.6890    18.8280    34.2730 ho         1 UNL       0.209800
      3 O1          13.1260    17.4540    36.5350 oh         1 UNL      -0.387100
      4 H1          12.4930    18.1990    36.8590 ho         1 UNL       0.210200
      5 C           14.1810    18.0370    35.6980 c3         1 UNL       0.082200
      6 H2          14.9320    18.4880    36.3720 h1         1 UNL       0.064400
      7 C1          14.9150    16.9590    34.7840 c3         1 UNL       0.003700
      8 H3          14.1650    16.4640    34.1460 hc         1 UNL       0.031800
      9 H4          15.3600    16.1820    35.4280 hc         1 UNL       0.031800
     10 C2          16.0750    17.6280    33.8850 c3         1 UNL       0.061900
     11 H5          16.5370    16.8580    33.2410 h1         1 UNL       0.059700
     12 C3          15.4830    18.8070    32.9870 c3         1 UNL      -0.001100
     13 H6          14.8120    18.3710    32.2270 hc         1 UNL       0.033800
     14 H7          16.3090    19.2880    32.4390 hc         1 UNL       0.033800
     15 C4          14.6780    19.8850    33.7870 ce         1 UNL      -0.039900
     16 C5          14.8630    21.2550    33.6570 cf         1 UNL      -0.058200
     17 H8          15.6370    21.5320    32.9410 ha         1 UNL       0.062000
     18 C6          14.2010    22.4150    34.3140 cf         1 UNL      -0.062000
     19 H9          13.8420    22.2330    35.3270 ha         1 UNL       0.061700
     20 C7          13.9860    23.6240    33.8520 c2         1 UNL      -0.065900
     21 C8          14.4350    24.1110    32.3790 c3         1 UNL      -0.031200
     22 H10         14.9700    23.3200    31.8350 hc         1 UNL       0.031000
     23 H11         15.1470    24.9400    32.5290 hc         1 UNL       0.031000
     24 C9          13.6010    19.1950    34.7730 ce         1 UNL      -0.022900
     25 C10         13.1870    24.6460    31.4910 c3         1 UNL      -0.048800
     26 H12         12.6130    23.7760    31.1330 hc         1 UNL       0.026800
     27 H13         13.5370    25.2060    30.6090 hc         1 UNL       0.026800
     28 C11         12.2310    25.5920    32.3910 c3         1 UNL      -0.046500
     29 H14         11.3020    25.8030    31.8330 hc         1 UNL       0.027100
     30 H15         12.7570    26.5610    32.4600 hc         1 UNL       0.027100
     31 C12         11.8140    25.1290    33.9600 c3         1 UNL      -0.022200
     32 C13         13.2500    24.7290    34.6670 c3         1 UNL      -0.013900
     33 H16         13.8880    25.6300    34.7030 hc         1 UNL       0.035100
     34 C14         12.6990    24.3720    36.2220 c3         1 UNL      -0.045700
     35 H17         13.4810    24.4930    36.9840 hc         1 UNL       0.027100
     36 H18         12.3330    23.3370    36.2720 hc         1 UNL       0.027100
     37 C15         11.4750    25.3840    36.3800 c3         1 UNL      -0.048600
     38 H19         11.5730    26.0490    37.2510 hc         1 UNL       0.026800
     39 H20         10.5450    24.8120    36.5200 hc         1 UNL       0.026800
     40 C16         11.4180    26.1800    35.0200 c3         1 UNL      -0.029100
     41 H21         12.1690    26.9920    35.0140 hc         1 UNL       0.031200
     42 C17         10.7870    23.7830    33.6420 c3         1 UNL      -0.058700
     43 H22         10.4540    23.2710    34.5550 hc         1 UNL       0.023500
     44 H23          9.9020    24.1310    33.0880 hc         1 UNL       0.023500
     45 H24         11.3430    23.0670    33.0190 hc         1 UNL       0.023500
     46 C18         12.2570    19.5560    34.8130 c2         1 UNL      -0.092800
     47 H25         11.8870    20.3530    34.1680 ha         1 UNL       0.053800
     48 H26         11.5740    19.0410    35.4890 ha         1 UNL       0.053800
     49 C19          9.9380    26.8860    34.7250 c3         1 UNL      -0.022300
     50 H27          9.9090    27.0970    33.6410 hc         1 UNL       0.034300
     51 C20          8.6080    26.1550    35.0790 c2         1 UNL      -0.082400
     52 H28          8.5560    25.6510    36.0440 ha         1 UNL       0.057300
     53 C21          6.1080    25.6110    34.6940 c3         1 UNL       0.076200
     54 H29          6.2140    25.0820    35.6560 h1         1 UNL       0.064000
     55 C22          9.8650    28.2480    35.4480 c3         1 UNL      -0.058700
     56 H30          8.9400    28.7910    35.1910 hc         1 UNL       0.023500
     57 H31          9.8810    28.1070    36.5410 hc         1 UNL       0.023500
     58 H32         10.7120    28.9020    35.1840 hc         1 UNL       0.023500
     59 C23          5.5480    24.5800    33.5850 cx         1 UNL      -0.011300
     60 H33          6.3310    23.8590    33.3190 hc         1 UNL       0.032900
     61 C24          5.0380    25.5240    32.4720 cx         1 UNL      -0.047200
     62 H34          5.2750    25.3430    31.4230 hc         1 UNL       0.026900
     63 H35          4.6800    26.5270    32.7100 hc         1 UNL       0.026900
     64 C25          4.2940    24.3490    33.2310 cx         1 UNL      -0.047200
     65 H36          3.4650    24.5770    33.9090 hc         1 UNL       0.026900
     66 H37          4.0790    23.4330    32.6710 hc         1 UNL       0.026900
     67 O2           5.2530    26.7520    34.9730 oh         1 UNL      -0.387500
     68 H38          5.8130    27.6160    34.9470 ho         1 UNL       0.210200
     69 C26          7.5040    26.0930    34.2820 c2         1 UNL      -0.059300
     70 H39          7.6260    26.4190    33.2490 ha         1 UNL       0.059500
@<TRIPOS>BOND
     1     1    10 1   
     2     1     2 1   
     3     3     5 1   
     4     3     4 1   
     5     5     7 1   
     6     5    24 1   
     7     5     6 1   
     8     7    10 1   
     9     7     8 1   
    10     7     9 1   
    11    10    12 1   
    12    10    11 1   
    13    12    15 1   
    14    12    13 1   
    15    12    14 1   
    16    15    16 2   
    17    15    24 1   
    18    16    18 1   
    19    16    17 1   
    20    18    20 2   
    21    18    19 1   
    22    20    21 1   
    23    20    32 1   
    24    21    25 1   
    25    21    22 1   
    26    21    23 1   
    27    24    46 2   
    28    25    28 1   
    29    25    26 1   
    30    25    27 1   
    31    28    31 1   
    32    28    29 1   
    33    28    30 1   
    34    31    32 1   
    35    31    40 1   
    36    31    42 1   
    37    32    34 1   
    38    32    33 1   
    39    34    37 1   
    40    34    35 1   
    41    34    36 1   
    42    37    40 1   
    43    37    38 1   
    44    37    39 1   
    45    40    49 1   
    46    40    41 1   
    47    42    43 1   
    48    42    44 1   
    49    42    45 1   
    50    46    47 1   
    51    46    48 1   
    52    49    51 1   
    53    49    55 1   
    54    49    50 1   
    55    51    69 2   
    56    51    52 1   
    57    53    59 1   
    58    53    67 1   
    59    53    69 1   
    60    53    54 1   
    61    55    56 1   
    62    55    57 1   
    63    55    58 1   
    64    59    61 1   
    65    59    64 1   
    66    59    60 1   
    67    61    64 1   
    68    61    62 1   
    69    61    63 1   
    70    64    65 1   
    71    64    66 1   
    72    67    68 1   
    73    69    70 1   
@<TRIPOS>SUBSTRUCTURE
     1 UNL         1 TEMP              0 ****  ****    0 ROOT
