@<TRIPOS>MOLECULE
LIGAND
   55    58     1     0     0
SMALL
No Charge or Current Charge


@<TRIPOS>ATOM
      1 C            3.9020     9.7100    25.8190 ca         1 UNL      -0.059500
      2 C1           5.0190     8.9440    25.4540 ca         1 UNL      -0.037600
      3 C2           5.3240     8.7110    24.0820 ca         1 UNL       0.050200
      4 C3           4.5650     9.2430    23.0410 ca         1 UNL       0.003500
      5 C4           3.4020    10.0360    23.4190 ca         1 UNL      -0.041300
      6 C5           3.0890    10.2410    24.7900 ca         1 UNL      -0.058200
      7 N            6.3100     7.8910    23.5500 na         1 UNL      -0.331800
      8 C6           6.1790     7.9630    22.1710 cc         1 UNL       0.105700
      9 C7           5.1020     8.8590    21.7940 cd         1 UNL      -0.023700
     10 C8           2.5560    10.6660    22.3880 c3         1 UNL      -0.039100
     11 C9           6.9710     7.2330    21.2470 c          1 UNL       0.260800
     12 N1           6.4300     6.9100    20.0470 n          1 UNL      -0.306000
     13 C10          7.2180     6.1500    19.0760 c3         1 UNL       0.037300
     14 C11          7.5250     4.6930    19.4150 ca         1 UNL      -0.027600
     15 C12          7.1730     7.0070    24.3450 c3         1 UNL       0.049000
     16 C13          8.4660     7.6430    24.7880 ca         1 UNL      -0.026900
     17 C14          9.1520     8.6530    24.0800 ca         1 UNL      -0.056800
     18 C15         10.4430     9.0430    24.4850 ca         1 UNL      -0.060600
     19 C16         11.0080     8.4270    25.6190 ca         1 UNL      -0.047000
     20 C17         10.2730     7.4690    26.3560 ca         1 UNL       0.061100
     21 C18          9.0090     7.0820    25.9340 ca         1 UNL      -0.042100
     22 C19          8.4830     3.9960    18.6620 ca         1 UNL      -0.038600
     23 C20          8.7180     2.6240    18.8490 ca         1 UNL       0.042700
     24 C21          7.9850     1.9400    19.8330 ca         1 UNL      -0.025000
     25 C22          7.0210     2.6140    20.6080 ca         1 UNL       0.042700
     26 C23          6.8080     3.9930    20.3970 ca         1 UNL      -0.038600
     27 C24         10.7420     6.8550    27.5860 ce         1 UNL       0.266200
     28 N2          12.0200     6.8870    27.9700 nh         1 UNL      -0.288400
     29 Cl           9.8430     1.7730    17.8020 cl         1 UNL      -0.083500
     30 Cl1          6.0320     1.7510    21.7850 cl         1 UNL      -0.083500
     31 O            8.1180     6.8820    21.5360 o          1 UNL      -0.268600
     32 N3           9.8220     6.2060    28.2890 nh         1 UNL      -0.249700
     33 H            3.6670     9.8910    26.8680 ha         1 UNL       0.061800
     34 H1           5.6600     8.5230    26.2280 ha         1 UNL       0.063800
     35 H2           2.2040    10.8200    25.0540 ha         1 UNL       0.062000
     36 H3           4.7860     9.1610    20.7950 ha         1 UNL       0.064600
     37 H4           3.1580    11.2730    21.6920 hc         1 UNL       0.027800
     38 H5           2.0290     9.9090    21.7840 hc         1 UNL       0.027800
     39 H6           1.7940    11.3260    22.8290 hc         1 UNL       0.027800
     40 H7           5.4680     7.1980    19.8190 hn         1 UNL       0.149400
     41 H8           7.3980     6.0940    23.7690 h1         1 UNL       0.054100
     42 H9           6.6100     6.6890    25.2370 h1         1 UNL       0.054100
     43 H10          8.6830     9.1310    23.2200 ha         1 UNL       0.062100
     44 H11         10.9930     9.8050    23.9330 ha         1 UNL       0.061800
     45 H12         12.0190     8.6900    25.9310 ha         1 UNL       0.062600
     46 H13          8.4460     6.3410    26.5010 ha         1 UNL       0.062900
     47 H14          9.0610     4.5350    17.9110 ha         1 UNL       0.063500
     48 H15          8.1640     0.8780    19.9980 ha         1 UNL       0.064700
     49 H16         12.3040     6.4370    28.8520 hn         1 UNL       0.300900
     50 H17         12.7220     7.3620    27.3850 hn         1 UNL       0.300900
     51 H18         10.0800     5.7450    29.1730 hn         1 UNL       0.288300
     52 H19          8.8500     6.1640    27.9500 hn         1 UNL       0.288300
     53 H20          8.1740     6.6750    18.9040 h1         1 UNL       0.051200
     54 H21          6.6830     6.1810    18.1100 h1         1 UNL       0.051200
     55 H22          6.0750     4.5220    21.0060 ha         1 UNL       0.063500
@<TRIPOS>BOND
     1     1     2 ar  
     2     1     6 ar  
     3     2     3 ar  
     4     3     4 ar  
     5     3     7 1   
     6     4     5 ar  
     7     4     9 1   
     8     5     6 ar  
     9     5    10 1   
    10     7     8 1   
    11     7    15 1   
    12     8     9 2   
    13     8    11 1   
    14    11    12 1   
    15    11    31 2   
    16    12    13 1   
    17    13    14 1   
    18    14    22 ar  
    19    14    26 ar  
    20    15    16 1   
    21    16    17 ar  
    22    16    21 ar  
    23    17    18 ar  
    24    18    19 ar  
    25    19    20 ar  
    26    20    21 ar  
    27    20    27 1   
    28    22    23 ar  
    29    23    24 ar  
    30    23    29 1   
    31    24    25 ar  
    32    25    26 ar  
    33    25    30 1   
    34    27    28 2   
    35    27    32 1   
    36     1    33 1   
    37     2    34 1   
    38     6    35 1   
    39     9    36 1   
    40    10    37 1   
    41    10    38 1   
    42    10    39 1   
    43    12    40 1   
    44    15    41 1   
    45    15    42 1   
    46    17    43 1   
    47    18    44 1   
    48    19    45 1   
    49    21    46 1   
    50    22    47 1   
    51    24    48 1   
    52    28    49 1   
    53    28    50 1   
    54    32    51 1   
    55    32    52 1   
    56    13    53 1   
    57    13    54 1   
    58    26    55 1   
@<TRIPOS>SUBSTRUCTURE
     1 UNL         1 TEMP              0 ****  ****    0 ROOT
