@<TRIPOS>MOLECULE
MOL
   54    58     1     0     0
SMALL
No Charge or Current Charge


@<TRIPOS>ATOM
      1 O1           6.3430    32.1700    -1.4060 o          1 MOL       0.000000
      2 C1           6.0870    31.7800    -2.5320 c          1 MOL       0.000000
      3 N1           4.8210    31.2600    -2.8820 n          1 MOL       0.000000
      4 C2           4.7330    31.0670    -4.2910 c          1 MOL       0.000000
      5 O2           3.7610    30.6170    -4.8780 o          1 MOL       0.000000
      6 C3           5.9840    31.5020    -4.9040 c3         1 MOL       0.000000
      7 C4           5.9640    32.8950    -5.5340 c3         1 MOL       0.000000
      8 N2           6.5120    34.0110    -4.6320 n3         1 MOL       0.000000
      9 C5           7.1020    34.9360    -5.6420 c3         1 MOL       0.000000
     10 C6           6.2940    34.6590    -6.9520 c3         1 MOL       0.000000
     11 C7           6.1810    33.1280    -6.9730 c3         1 MOL       0.000000
     12 C8           7.6080    33.1540    -4.0020 c3         1 MOL       0.000000
     13 C9           6.9610    31.8100    -3.7240 c3         1 MOL       0.000000
     14 C10          8.4320    33.8070    -2.9330 ca         1 MOL       0.000000
     15 C11          7.9080    34.9320    -2.3040 ca         1 MOL       0.000000
     16 C12          8.6050    35.5360    -1.2660 ca         1 MOL       0.000000
     17 C13          9.8570    34.9880    -0.8710 ca         1 MOL       0.000000
     18 C14         10.3860    33.8540    -1.4990 ca         1 MOL       0.000000
     19 C15          9.6740    33.2500    -2.5390 ca         1 MOL       0.000000
     20 C16         10.5780    35.6450     0.2070 ce         1 MOL       0.000000
     21 N3          10.5710    35.1830     1.4830 nh         1 MOL       0.000000
     22 H1          11.0970    35.6820     2.2140 hn         1 MOL       0.000000
     23 H2          10.0390    34.3330     1.7190 hn         1 MOL       0.000000
     24 N4          11.3020    36.7740    -0.0030 nh         1 MOL       0.000000
     25 H3          10.9900    37.6690     0.4010 hn         1 MOL       0.000000
     26 H4          12.1630    36.7370    -0.5660 hn         1 MOL       0.000000
     27 C17          3.7300    31.2050    -1.9080 c3         1 MOL       0.000000
     28 C18          2.6840    32.2310    -2.2470 ca         1 MOL       0.000000
     29 C19          1.3400    31.9720    -1.9160 ca         1 MOL       0.000000
     30 C20          0.3720    32.9360    -2.1970 ca         1 MOL       0.000000
     31 C21          0.7790    34.1300    -2.8070 ca         1 MOL       0.000000
     32 F1          -0.1990    35.0240    -3.0320 f          1 MOL       0.000000
     33 C22          2.1000    34.4310    -3.1690 ca         1 MOL       0.000000
     34 C23          3.0710    33.4400    -2.8770 ca         1 MOL       0.000000
     35 H5           6.2140    30.7410    -5.6200 hc         1 MOL       0.000000
     36 H6           4.8960    32.9500    -5.5810 h1         1 MOL       0.000000
     37 H7           6.9860    35.9540    -5.3350 h1         1 MOL       0.000000
     38 H8           8.1520    34.7770    -5.7720 h1         1 MOL       0.000000
     39 H9           5.3270    35.1150    -6.9110 hc         1 MOL       0.000000
     40 H10          6.7620    35.0590    -7.8270 hc         1 MOL       0.000000
     41 H11          7.0790    32.6640    -7.3240 hc         1 MOL       0.000000
     42 H12          5.4300    32.7300    -7.6230 hc         1 MOL       0.000000
     43 H13          8.4290    33.0010    -4.6700 h1         1 MOL       0.000000
     44 H14          7.7710    31.1250    -3.5880 hc         1 MOL       0.000000
     45 H15          7.0010    35.3180    -2.6090 ha         1 MOL       0.000000
     46 H16          8.2220    36.3670    -0.7900 ha         1 MOL       0.000000
     47 H17         11.2940    33.4670    -1.1970 ha         1 MOL       0.000000
     48 H18         10.0470    32.4120    -3.0120 ha         1 MOL       0.000000
     49 H19          4.1170    31.4040    -0.9310 h1         1 MOL       0.000000
     50 H20          3.2870    30.2310    -1.9320 h1         1 MOL       0.000000
     51 H21          1.0750    31.0800    -1.4710 ha         1 MOL       0.000000
     52 H22         -0.6200    32.7740    -1.9610 ha         1 MOL       0.000000
     53 H23          2.3510    35.3230    -3.6220 ha         1 MOL       0.000000
     54 H24          4.0600    33.5990    -3.1230 ha         1 MOL       0.000000
@<TRIPOS>BOND
     1     2     1 2   
     2     3     2 1   
     3     3    27 1   
     4     4     3 1   
     5     5     4 2   
     6     6     7 1   
     7     6     4 1   
     8     6    35 1   
     9     7     8 1   
    10     7    36 1   
    11     8    12 1   
    12     9     8 1   
    13     9    37 1   
    14     9    38 1   
    15    10     9 1   
    16    10    39 1   
    17    10    40 1   
    18    11    10 1   
    19    11     7 1   
    20    11    41 1   
    21    11    42 1   
    22    12    13 1   
    23    12    14 1   
    24    12    43 1   
    25    13     6 1   
    26    13     2 1   
    27    13    44 1   
    28    14    19 ar  
    29    14    15 ar  
    30    15    16 ar  
    31    15    45 1   
    32    16    17 ar  
    33    16    46 1   
    34    17    20 1   
    35    18    17 ar  
    36    18    47 1   
    37    19    18 ar  
    38    19    48 1   
    39    20    21 2   
    40    21    23 1   
    41    21    22 1   
    42    24    20 1   
    43    24    25 1   
    44    26    24 1   
    45    27    49 1   
    46    27    50 1   
    47    28    29 ar  
    48    28    27 1   
    49    29    51 1   
    50    30    29 ar  
    51    30    52 1   
    52    31    30 ar  
    53    32    31 1   
    54    33    34 ar  
    55    33    31 ar  
    56    33    53 1   
    57    34    28 ar  
    58    34    54 1   
@<TRIPOS>SUBSTRUCTURE
     1 MOL         1 TEMP              0 ****  ****    0 ROOT
