@<TRIPOS>MOLECULE
LIGAND
   55    57     1     0     0
SMALL
No Charge or Current Charge


@<TRIPOS>ATOM
      1 C           34.5900    -7.3020   -13.1620 ca         1 UNL       0.008200
      2 C1          34.7220    -8.6540   -12.9220 ca         1 UNL       0.050300
      3 C2          35.6320    -9.4120   -13.6910 ca         1 UNL      -0.037600
      4 C3          36.3980    -8.7790   -14.6960 ca         1 UNL      -0.059800
      5 C4          36.2530    -7.4010   -14.9230 ca         1 UNL      -0.061100
      6 C5          35.3460    -6.6540   -14.1560 ca         1 UNL      -0.052000
      7 C6          33.5600    -6.7290   -12.2210 cc         1 UNL       0.014700
      8 C7          33.2020    -7.8280   -11.5240 cd         1 UNL       0.050700
      9 N           33.9300    -9.0170   -11.9660 na         1 UNL      -0.337200
     10 C8          32.0550    -3.3330   -13.1100 ca         1 UNL      -0.025900
     11 C9          32.5040    -4.6520   -13.2230 ca         1 UNL      -0.051200
     12 C10         33.0830    -5.2880   -12.1180 ca         1 UNL      -0.015100
     13 C11         33.2080    -4.5980   -10.9020 ca         1 UNL      -0.051200
     14 C12         32.7590    -3.2800   -10.7910 ca         1 UNL      -0.025900
     15 C13         32.1810    -2.6500   -11.8980 ca         1 UNL       0.123400
     16 F           31.7350    -1.3640   -11.7930 f          1 UNL      -0.205500
     17 O           32.4980    -3.2890    -4.9480 o          1 UNL      -0.246300
     18 O1          34.0220    -3.8720    -6.5480 o          1 UNL      -0.246300
     19 O2          30.8900    -5.3120    -7.3940 oh         1 UNL      -0.391100
     20 C14         33.0070    -4.1330    -5.6760 c          1 UNL       0.358500
     21 C15         32.5760    -5.5940    -5.6880 c3         1 UNL       0.075200
     22 C16         32.0460    -6.0870    -7.0450 c3         1 UNL       0.068100
     23 C17         31.6420    -7.5660    -6.9700 c3         1 UNL       0.003400
     24 C18         31.1070    -8.1150    -8.2960 c3         1 UNL       0.076100
     25 C19         32.2290    -8.2910    -9.2940 c2         1 UNL      -0.053900
     26 C20         32.2660    -7.7600   -10.5290 cf         1 UNL      -0.039100
     27 C21         33.6970   -10.4120   -11.4090 c3         1 UNL       0.029500
     28 C22         33.4460   -11.4490   -12.5080 c3         1 UNL      -0.044500
     29 C23         34.8620   -10.8430   -10.4960 c3         1 UNL      -0.044500
     30 O3          30.4700    -9.3470    -8.0030 oh         1 UNL      -0.387700
     31 H           35.7430   -10.4810   -13.5100 ha         1 UNL       0.063800
     32 H1          37.1000    -9.3600   -15.2940 ha         1 UNL       0.061800
     33 H2          36.8460    -6.9110   -15.6960 ha         1 UNL       0.061800
     34 H3          35.2280    -5.5840   -14.3280 ha         1 UNL       0.062400
     35 H4          31.6050    -2.8360   -13.9700 ha         1 UNL       0.064600
     36 H5          32.4040    -5.1840   -14.1690 ha         1 UNL       0.062400
     37 H6          33.6570    -5.0930   -10.0410 ha         1 UNL       0.062400
     38 H7          32.8580    -2.7450    -9.8470 ha         1 UNL       0.064600
     39 H8          31.1370    -4.3120    -7.4070 ho         1 UNL       0.209800
     40 H9          31.8100    -5.7810    -4.9180 hc         1 UNL       0.040400
     41 H10         33.4660    -6.1860    -5.4170 hc         1 UNL       0.040400
     42 H11         32.8240    -5.9550    -7.8210 h1         1 UNL       0.059900
     43 H12         30.8540    -7.6560    -6.2010 hc         1 UNL       0.031800
     44 H13         32.4900    -8.1830    -6.6230 hc         1 UNL       0.031800
     45 H14         30.3500    -7.4230    -8.7090 h1         1 UNL       0.063800
     46 H15         33.0800    -8.8990    -8.9870 ha         1 UNL       0.059800
     47 H16         31.3880    -7.1660   -10.7840 ha         1 UNL       0.063600
     48 H17         32.7810   -10.3500   -10.8030 h1         1 UNL       0.052200
     49 H18         32.9960   -12.3410   -12.0390 hc         1 UNL       0.024900
     50 H19         32.7320   -11.0810   -13.2610 hc         1 UNL       0.024900
     51 H20         34.3480   -11.7970   -13.0240 hc         1 UNL       0.024900
     52 H21         34.6270   -11.8230   -10.0500 hc         1 UNL       0.024900
     53 H22         35.8030   -10.9370   -11.0580 hc         1 UNL       0.024900
     54 H23         35.0250   -10.1270    -9.6760 hc         1 UNL       0.024900
     55 H24         29.4720    -9.1810    -7.8120 ho         1 UNL       0.210200
@<TRIPOS>BOND
     1     1     2 ar  
     2     1     6 ar  
     3     1     7 1   
     4     2     3 ar  
     5     2     9 1   
     6     3     4 ar  
     7     4     5 ar  
     8     5     6 ar  
     9     7     8 2   
    10     7    12 1   
    11     8     9 1   
    12     8    26 1   
    13     9    27 1   
    14    10    11 ar  
    15    10    15 ar  
    16    11    12 ar  
    17    12    13 ar  
    18    13    14 ar  
    19    14    15 ar  
    20    15    16 1   
    21    17    20 1   
    22    18    20 1   
    23    19    22 1   
    24    20    21 1   
    25    21    22 1   
    26    22    23 1   
    27    23    24 1   
    28    24    25 1   
    29    24    30 1   
    30    25    26 2   
    31    27    28 1   
    32    27    29 1   
    33     3    31 1   
    34     4    32 1   
    35     5    33 1   
    36     6    34 1   
    37    10    35 1   
    38    11    36 1   
    39    13    37 1   
    40    14    38 1   
    41    19    39 1   
    42    21    40 1   
    43    21    41 1   
    44    22    42 1   
    45    23    43 1   
    46    23    44 1   
    47    24    45 1   
    48    25    46 1   
    49    26    47 1   
    50    27    48 1   
    51    28    49 1   
    52    28    50 1   
    53    28    51 1   
    54    29    52 1   
    55    29    53 1   
    56    29    54 1   
    57    30    55 1   
@<TRIPOS>SUBSTRUCTURE
     1 UNL         1 TEMP              0 ****  ****    0 ROOT
