@<TRIPOS>MOLECULE
LIGAND
   50    49     1     0     0
SMALL
No Charge or Current Charge


@<TRIPOS>ATOM
      1 C           69.1190    32.8830   117.6770 c3         1 UNL      -0.057900
      2 H           69.7960    32.0150   117.7480 hc         1 UNL       0.023600
      3 H1          68.4780    32.7260   116.7930 hc         1 UNL       0.023600
      4 H2          69.7420    33.7720   117.4810 hc         1 UNL       0.023600
      5 C1          67.4240    34.3730   118.7360 c3         1 UNL      -0.057900
      6 H3          66.8240    34.6340   119.6230 hc         1 UNL       0.023600
      7 H4          68.0880    35.2280   118.5220 hc         1 UNL       0.023600
      8 H5          66.7310    34.2690   117.8860 hc         1 UNL       0.023600
      9 C2          68.2790    33.0670   118.9690 c3         1 UNL      -0.010800
     10 C3          67.3890    31.7540   119.2710 c3         1 UNL       0.104200
     11 H6          68.0750    30.9040   119.3700 h1         1 UNL       0.060000
     12 C4          69.2630    33.4070   120.1530 c3         1 UNL      -0.057900
     13 H7          68.7100    33.6230   121.0820 hc         1 UNL       0.023600
     14 H8          69.9570    32.5770   120.3600 hc         1 UNL       0.023600
     15 H9          69.8690    34.2960   119.9090 hc         1 UNL       0.023600
     16 C5          66.4910    31.8470   120.5860 c          1 UNL       0.233600
     17 O           65.4060    32.4680   120.5890 o          1 UNL      -0.273800
     18 N           66.4500    31.4280   118.1310 n          1 UNL      -0.303200
     19 H10         65.9120    32.2000   117.7120 hn         1 UNL       0.149500
     20 N1          67.0030    31.1960   121.6670 n          1 UNL      -0.316800
     21 H11         67.9050    30.7120   121.5530 hn         1 UNL       0.148400
     22 C6          66.3500    31.1370   122.9960 c3         1 UNL       0.000100
     23 H12         65.5390    31.8740   123.0280 h1         1 UNL       0.042600
     24 H13         65.9210    30.1380   123.1790 h1         1 UNL       0.042600
     25 H14         67.0790    31.3860   123.7830 h1         1 UNL       0.042600
     26 C7          62.2950    30.8850   117.4880 c3         1 UNL      -0.062600
     27 H15         61.5480    31.2000   118.2360 hc         1 UNL       0.023200
     28 H16         62.9750    31.7390   117.3350 hc         1 UNL       0.023200
     29 H17         61.7650    30.7080   116.5370 hc         1 UNL       0.023200
     30 C8          63.0380    29.6080   117.9420 c3         1 UNL      -0.046000
     31 H18         63.5690    29.7890   118.8940 hc         1 UNL       0.029600
     32 C9          66.0930    29.3440   115.2980 c3         1 UNL       0.029900
     33 H19         66.4720    28.3730   115.6580 h1         1 UNL       0.047700
     34 H20         66.9720    29.9540   115.0340 h1         1 UNL       0.047700
     35 C10         65.2680    30.0260   116.4520 c3         1 UNL       0.052000
     36 H21         64.9110    31.0090   116.1060 hc         1 UNL       0.041000
     37 C11         64.0190    29.1340   116.8410 c3         1 UNL      -0.038100
     38 H22         63.4310    28.9950   115.9150 hc         1 UNL       0.027500
     39 H23         64.4020    28.1320   117.1080 hc         1 UNL       0.027500
     40 C12         61.9510    28.5640   118.1220 c3         1 UNL      -0.062600
     41 H24         62.3530    27.5880   118.4420 hc         1 UNL       0.023200
     42 H25         61.2130    28.8690   118.8830 hc         1 UNL       0.023200
     43 H26         61.4060    28.4000   117.1760 hc         1 UNL       0.023200
     44 C13         66.2740    30.1870   117.6290 c          1 UNL       0.218200
     45 C14         64.8510    27.9580   113.6730 c          1 UNL       0.043800
     46 H27         65.0670    27.0870   114.2920 h5         1 UNL       0.087500
     47 O1          65.0830    30.1770   113.3580 o          1 UNL      -0.420500
     48 N2          65.3230    29.1400   114.0740 n          1 UNL      -0.298200
     49 O2          64.2130    27.7930   112.6890 o          1 UNL      -0.545600
     50 O3          66.8820    29.1800   118.0670 o          1 UNL      -0.275400
@<TRIPOS>BOND
     1     1     9 1   
     2     1     2 1   
     3     1     3 1   
     4     1     4 1   
     5     5     9 1   
     6     5     6 1   
     7     5     7 1   
     8     5     8 1   
     9     9    10 1   
    10     9    12 1   
    11    10    16 1   
    12    10    18 1   
    13    10    11 1   
    14    12    13 1   
    15    12    14 1   
    16    12    15 1   
    17    16    17 2   
    18    16    20 1   
    19    18    44 1   
    20    18    19 1   
    21    20    22 1   
    22    20    21 1   
    23    22    23 1   
    24    22    24 1   
    25    22    25 1   
    26    26    30 1   
    27    26    27 1   
    28    26    28 1   
    29    26    29 1   
    30    30    37 1   
    31    30    40 1   
    32    30    31 1   
    33    32    35 1   
    34    32    48 1   
    35    32    33 1   
    36    32    34 1   
    37    35    37 1   
    38    35    44 1   
    39    35    36 1   
    40    37    38 1   
    41    37    39 1   
    42    40    41 1   
    43    40    42 1   
    44    40    43 1   
    45    44    50 2   
    46    45    48 1   
    47    45    49 2   
    48    45    46 1   
    49    47    48 2   
@<TRIPOS>SUBSTRUCTURE
     1 UNL         1 TEMP              0 ****  ****    0 ROOT
