@<TRIPOS>MOLECULE
MOL
   45    45     1     0     0
SMALL
No Charge or Current Charge


@<TRIPOS>ATOM
      1 C1          22.1200     6.9040    31.9930 c          1 MOL       0.000000
      2 O1          21.2510     6.3380    32.6290 o          1 MOL       0.000000
      3 N1          22.2460     8.3770    31.8740 n          1 MOL       0.000000
      4 H1          23.0220     8.7700    31.3230 hn         1 MOL       0.000000
      5 C2          23.1740     6.1720    31.1920 c3         1 MOL       0.000000
      6 C3          24.0010     7.1970    30.3210 c3         1 MOL       0.000000
      7 C4          25.4790     7.1910    30.6920 c3         1 MOL       0.000000
      8 C5          26.2300     8.2310    29.8750 c3         1 MOL       0.000000
      9 S1          25.6460     9.9000    30.1680 ss         1 MOL       0.000000
     10 C6          24.9580    10.3500    28.5990 c3         1 MOL       0.000000
     11 C7          25.5390    11.6630    28.0750 c3         1 MOL       0.000000
     12 C8          23.4460    10.4640    28.7220 c3         1 MOL       0.000000
     13 N2          24.1360     6.7680    28.9170 n3         1 MOL       0.000000
     14 H2          25.1340     6.6640    28.6840 hn         1 MOL       0.000000
     15 H3          23.6580     5.8650    28.7860 hn         1 MOL       0.000000
     16 O2          22.5250     5.2040    30.3760 oh         1 MOL       0.000000
     17 H4          21.5980     5.5560    30.0950 ho         1 MOL       0.000000
     18 N3          21.2970     9.2870    32.5210 n          1 MOL       0.000000
     19 C9          21.4900    10.6470    32.5470 c          1 MOL       0.000000
     20 O3          22.5050    11.1180    31.9920 o          1 MOL       0.000000
     21 H5          20.4580     8.8940    32.9700 hn         1 MOL       0.000000
     22 C10         20.4950    11.5430    33.2240 ca         1 MOL       0.000000
     23 C11         19.8570    12.7620    32.6220 ca         1 MOL       0.000000
     24 C12         18.8820    13.5510    33.4330 ca         1 MOL       0.000000
     25 C13         18.5420    13.1410    34.8270 ca         1 MOL       0.000000
     26 C14         19.1860    11.9400    35.3910 ca         1 MOL       0.000000
     27 C15         20.1340    11.1560    34.6240 ca         1 MOL       0.000000
     28 Cl1         18.8490    11.4110    36.9820 cl         1 MOL       0.000000
     29 H6          23.8630     5.6760    31.8440 h1         1 MOL       0.000000
     30 H7          23.4770     8.1170    30.4740 h1         1 MOL       0.000000
     31 H8          25.5830     7.4170    31.7330 hc         1 MOL       0.000000
     32 H9          25.8870     6.2240    30.4850 hc         1 MOL       0.000000
     33 H10         27.2680     8.1820    30.1310 h1         1 MOL       0.000000
     34 H11         26.0650     8.0090    28.8410 h1         1 MOL       0.000000
     35 H12         25.2120     9.5840    27.8960 h1         1 MOL       0.000000
     36 H13         25.3030    12.4540    28.7560 hc         1 MOL       0.000000
     37 H14         25.1190    11.8810    27.1150 hc         1 MOL       0.000000
     38 H15         26.6020    11.5730    27.9870 hc         1 MOL       0.000000
     39 H16         23.2020    11.2320    29.4260 hc         1 MOL       0.000000
     40 H17         23.0440     9.5310    29.0580 hc         1 MOL       0.000000
     41 H18         23.0280    10.7090    27.7680 hc         1 MOL       0.000000
     42 H19         20.0900    13.0510    31.6590 ha         1 MOL       0.000000
     43 H20         18.4390    14.3890    33.0250 ha         1 MOL       0.000000
     44 H21         17.8690    13.6880    35.3860 ha         1 MOL       0.000000
     45 H22         20.5660    10.3200    35.0490 ha         1 MOL       0.000000
@<TRIPOS>BOND
     1     1     2 2   
     2     3     1 1   
     3     3    18 1   
     4     4     3 1   
     5     5     1 1   
     6     5    29 1   
     7     6     7 1   
     8     6     5 1   
     9     6    30 1   
    10     7    31 1   
    11     7    32 1   
    12     8     9 1   
    13     8     7 1   
    14     8    33 1   
    15     8    34 1   
    16    10    12 1   
    17    10     9 1   
    18    10    35 1   
    19    11    10 1   
    20    11    36 1   
    21    11    37 1   
    22    11    38 1   
    23    12    39 1   
    24    12    40 1   
    25    12    41 1   
    26    13     6 1   
    27    14    13 1   
    28    15    13 1   
    29    16     5 1   
    30    17    16 1   
    31    18    19 1   
    32    18    21 1   
    33    19    22 1   
    34    20    19 2   
    35    22    27 ar  
    36    23    22 ar  
    37    23    24 ar  
    38    23    42 1   
    39    24    25 ar  
    40    24    43 1   
    41    25    26 ar  
    42    25    44 1   
    43    26    28 1   
    44    27    26 ar  
    45    27    45 1   
@<TRIPOS>SUBSTRUCTURE
     1 MOL         1 TEMP              0 ****  ****    0 ROOT
