@<TRIPOS>MOLECULE
MOL
   44    44     1     0     0
SMALL
No Charge or Current Charge


@<TRIPOS>ATOM
      1 O1          17.7210   128.3680    -1.0950 o          1 MOL       0.000000
      2 C1          18.0850   128.8560    -2.1390 c          1 MOL       0.000000
      3 N1          19.1490   129.7080    -2.4590 n          1 MOL       0.000000
      4 C2          19.9120   130.6230    -1.6620 c1         1 MOL       0.000000
      5 H1          19.4450   130.7280    -0.6700 ha         1 MOL       0.000000
      6 C3          19.7820   131.9530    -2.4390 c3         1 MOL       0.000000
      7 C4          20.9730   132.2700    -3.3830 c3         1 MOL       0.000000
      8 C5          19.6250   133.1790    -1.5150 c3         1 MOL       0.000000
      9 S1          18.2450   131.7610    -3.4110 s4         1 MOL       0.000000
     10 C6          18.5700   130.0120    -3.7510 cy         1 MOL       0.000000
     11 C7          17.5390   128.8860    -3.5500 cy         1 MOL       0.000000
     12 O2          17.0550   131.6550    -2.5350 o          1 MOL       0.000000
     13 N2          16.1360   129.1830    -3.5870 n          1 MOL       0.000000
     14 C8          15.3070   128.7390    -4.5630 c          1 MOL       0.000000
     15 O3          15.5520   128.0730    -5.5660 o          1 MOL       0.000000
     16 H2          15.8130   129.7000    -2.7750 hn         1 MOL       0.000000
     17 C9          13.8550   129.1780    -4.3780 c3         1 MOL       0.000000
     18 C10         13.7960   130.6950    -4.2460 ca         1 MOL       0.000000
     19 C11         14.1990   131.5430    -5.2670 ca         1 MOL       0.000000
     20 C12         14.0070   132.9230    -5.1490 ca         1 MOL       0.000000
     21 C13         13.4860   133.4580    -3.9610 ca         1 MOL       0.000000
     22 C14         13.1090   132.6190    -2.9070 ca         1 MOL       0.000000
     23 C15         13.2510   131.2430    -3.0830 ca         1 MOL       0.000000
     24 C16         21.3630   130.1720    -1.4430 c          1 MOL       0.000000
     25 O4          22.1020   130.6210    -0.6210 o          1 MOL       0.000000
     26 O5          21.6540   129.1570    -2.3070 oh         1 MOL       0.000000
     27 H3          19.9590   131.0500    -1.8930 h1         1 MOL       0.000000
     28 H4          20.7730   133.1750    -3.9170 hc         1 MOL       0.000000
     29 H5          21.1010   131.4660    -4.0780 hc         1 MOL       0.000000
     30 H6          21.8650   132.3870    -2.8040 hc         1 MOL       0.000000
     31 H7          19.4510   134.0530    -2.1080 hc         1 MOL       0.000000
     32 H8          20.5190   133.3100    -0.9410 hc         1 MOL       0.000000
     33 H9          18.7970   133.0250    -0.8550 hc         1 MOL       0.000000
     34 H10         18.9420   129.9920    -4.7540 h2         1 MOL       0.000000
     35 H11         17.4920   128.0700    -4.2400 h1         1 MOL       0.000000
     36 H12         13.4560   128.7270    -3.4930 hc         1 MOL       0.000000
     37 H13         13.2790   128.8710    -5.2260 hc         1 MOL       0.000000
     38 H14         14.6410   131.1550    -6.1150 ha         1 MOL       0.000000
     39 H15         14.2480   133.5470    -5.9350 ha         1 MOL       0.000000
     40 H16         13.3800   134.4800    -3.8640 ha         1 MOL       0.000000
     41 H17         12.7370   133.0070    -2.0260 ha         1 MOL       0.000000
     42 H18         12.9430   130.6090    -2.3290 ha         1 MOL       0.000000
     43 H19         20.4210   130.5880    -1.5060 h5         1 MOL       0.000000
     44 H20         21.0100   128.8670    -2.9230 ho         1 MOL       0.000000
@<TRIPOS>BOND
     1     2     1 2   
     2     3     2 1   
     3     3     4 3   
     4     4     5 1   
     5     6     8 1   
     6     6    27 1   
     7     7     6 1   
     8     7    28 1   
     9     7    29 1   
    10     7    30 1   
    11     8    31 1   
    12     8    32 1   
    13     8    33 1   
    14     9    12 2   
    15     9     6 1   
    16    10    11 1   
    17    10     9 1   
    18    10     3 1   
    19    10    34 1   
    20    11     2 1   
    21    11    35 1   
    22    13    11 1   
    23    13    16 1   
    24    14    17 1   
    25    14    13 1   
    26    15    14 2   
    27    17    18 1   
    28    17    36 1   
    29    17    37 1   
    30    18    23 ar  
    31    19    20 ar  
    32    19    18 ar  
    33    19    38 1   
    34    20    21 ar  
    35    20    39 1   
    36    21    22 ar  
    37    21    40 1   
    38    22    41 1   
    39    23    22 ar  
    40    23    42 1   
    41    24    25 2   
    42    24    43 1   
    43    26    24 1   
    44    26    44 1   
@<TRIPOS>SUBSTRUCTURE
     1 MOL         1 TEMP              0 ****  ****    0 ROOT
