@<TRIPOS>MOLECULE
LIGAND
   47    49     1     0     0
SMALL
No Charge or Current Charge


@<TRIPOS>ATOM
      1 O           17.2230     5.2550     6.1390 o          1 UNL      -0.242500
      2 C           18.0230     4.3770     6.2680 cc         1 UNL       0.372500
      3 N           17.9770     3.3560     7.1890 nd         1 UNL      -0.150900
      4 C1          18.9470     2.3970     7.2460 c          1 UNL       0.294500
      5 O1          18.9550     1.4890     8.0470 o          1 UNL      -0.264000
      6 N1          19.0230     4.4100     5.4000 n          1 UNL      -0.180200
      7 N2          20.0320     3.4130     5.4060 nc         1 UNL      -0.165000
      8 C2          20.0190     2.4460     6.2520 cd         1 UNL       0.114700
      9 H           20.7910     1.6770     6.2290 h4         1 UNL       0.090400
     10 C3          19.2990     5.4070     4.4430 ca         1 UNL       0.071400
     11 C4          20.4930     6.1760     4.7530 ca         1 UNL      -0.029700
     12 H1          21.0920     5.9480     5.6350 ha         1 UNL       0.064300
     13 C5          20.8590     7.2330     3.8770 ca         1 UNL      -0.005900
     14 C6          22.0400     8.0590     4.1150 c3         1 UNL      -0.036200
     15 H2          22.9150     7.5770     3.6800 hc         1 UNL       0.027900
     16 H3          21.8990     9.0370     3.6550 hc         1 UNL       0.027900
     17 H4          22.1890     8.1810     5.1880 hc         1 UNL       0.027900
     18 C7          18.5530     5.7190     3.3210 ca         1 UNL      -0.029700
     19 H5          17.6190     5.1850     3.1460 ha         1 UNL       0.064300
     20 C8          18.9560     6.7020     2.3970 ca         1 UNL      -0.005900
     21 C9          18.0880     7.0200     1.1620 c3         1 UNL      -0.036200
     22 H6          18.0950     8.0950     0.9790 hc         1 UNL       0.027900
     23 H7          18.4900     6.5010     0.2920 hc         1 UNL       0.027900
     24 H8          17.0650     6.6890     1.3410 hc         1 UNL       0.027900
     25 C10         20.1030     7.4820     2.6960 ca         1 UNL       0.134300
     26 O2          20.3800     8.5040     1.8130 os         1 UNL      -0.455500
     27 C11         21.4190     8.3390     0.9100 ca         1 UNL       0.129000
     28 C12         21.6800     7.0750     0.2610 ca         1 UNL      -0.015900
     29 H9          21.0730     6.1920     0.4590 ha         1 UNL       0.065500
     30 C13         22.2200     9.5120     0.6640 ca         1 UNL      -0.012400
     31 H10         22.0030    10.4490     1.1770 ha         1 UNL       0.065800
     32 C14         23.2950     9.4250    -0.2570 ca         1 UNL       0.000100
     33 C15         24.2110    10.6460    -0.5040 c3         1 UNL      -0.018000
     34 H11         24.8060    10.4370    -1.3930 hc         1 UNL       0.034500
     35 C16         23.2930    11.8890    -0.7160 c3         1 UNL      -0.058500
     36 H12         23.9090    12.7700    -0.8930 hc         1 UNL       0.023500
     37 H13         22.6450    11.7200    -1.5760 hc         1 UNL       0.023500
     38 H14         22.6820    12.0460     0.1730 hc         1 UNL       0.023500
     39 C17         25.0970    10.7800     0.7600 c3         1 UNL      -0.058500
     40 H15         25.7690    11.6300     0.6450 hc         1 UNL       0.023500
     41 H16         24.4640    10.9340     1.6340 hc         1 UNL       0.023500
     42 H17         25.6820     9.8700     0.8920 hc         1 UNL       0.023500
     43 C18         23.5830     8.1750    -0.8550 ca         1 UNL       0.120500
     44 C19         22.7560     7.0450    -0.6370 ca         1 UNL      -0.016400
     45 H18         22.9630     6.1250    -1.1840 ha         1 UNL       0.065500
     46 O3          24.6370     8.0360    -1.7310 oh         1 UNL      -0.506500
     47 H19         24.8020     8.9300    -2.2150 ho         1 UNL       0.292100
@<TRIPOS>BOND
     1     1     2 1   
     2     2     3 2   
     3     2     6 1   
     4     3     4 1   
     5     4     5 2   
     6     4     8 1   
     7     6     7 1   
     8     6    10 1   
     9     7     8 2   
    10     8     9 1   
    11    10    11 ar  
    12    10    18 ar  
    13    11    13 ar  
    14    11    12 1   
    15    13    14 1   
    16    13    25 ar  
    17    14    15 1   
    18    14    16 1   
    19    14    17 1   
    20    18    20 ar  
    21    18    19 1   
    22    20    21 1   
    23    20    25 ar  
    24    21    22 1   
    25    21    23 1   
    26    21    24 1   
    27    25    26 1   
    28    26    27 1   
    29    27    28 ar  
    30    27    30 ar  
    31    28    44 ar  
    32    28    29 1   
    33    30    32 ar  
    34    30    31 1   
    35    32    33 1   
    36    32    43 ar  
    37    33    35 1   
    38    33    39 1   
    39    33    34 1   
    40    35    36 1   
    41    35    37 1   
    42    35    38 1   
    43    39    40 1   
    44    39    41 1   
    45    39    42 1   
    46    43    44 ar  
    47    43    46 1   
    48    44    45 1   
    49    46    47 1   
@<TRIPOS>SUBSTRUCTURE
     1 UNL         1 TEMP              0 ****  ****    0 ROOT
