@<TRIPOS>MOLECULE
LIGAND
   38    40     1     0     0
SMALL
No Charge or Current Charge


@<TRIPOS>ATOM
      1 N           -9.5330    52.7730    40.6960 n          1 UNL      -0.280900
      2 H           -9.8300    53.7550    40.7840 hn         1 UNL       0.155200
      3 C           -9.9690    51.9100    39.7440 c          1 UNL       0.250100
      4 C1          -9.3390    50.5690    39.9840 cc         1 UNL       0.059600
      5 C2          -7.5730    49.8180    41.8530 ca         1 UNL      -0.052100
      6 H1          -7.4710    48.7800    41.5370 ha         1 UNL       0.062400
      7 C3          -6.8050    50.3380    43.0180 ca         1 UNL      -0.061100
      8 H2          -6.1230    49.6830    43.5600 ha         1 UNL       0.061800
      9 C4          -6.9720    51.7510    43.4380 ca         1 UNL      -0.060000
     10 H3          -6.4400    52.1220    44.3140 ha         1 UNL       0.061800
     11 C5          -7.8640    52.6690    42.6680 ca         1 UNL      -0.039900
     12 H4          -7.9450    53.7190    42.9480 ha         1 UNL       0.063600
     13 C6          -8.6350    52.1420    41.5260 ca         1 UNL       0.041600
     14 C7          -8.4880    50.7530    41.1260 ca         1 UNL       0.009500
     15 O          -10.7110    52.1550    38.7830 o          1 UNL      -0.269800
     16 C8          -9.4920    49.4720    39.2340 c2         1 UNL       0.006500
     17 H5          -9.0460    48.5420    39.5860 h4         1 UNL       0.078900
     18 N1         -10.2290    49.4510    37.9610 nh         1 UNL      -0.319800
     19 H6         -10.7760    50.2890    37.7190 hn         1 UNL       0.151600
     20 C9         -10.2480    48.4250    37.0840 ca         1 UNL       0.031000
     21 C10         -9.1600    47.3970    36.9390 ca         1 UNL      -0.038700
     22 H7          -8.2700    47.4550    37.5660 ha         1 UNL       0.063700
     23 C11         -9.2920    46.3320    35.9690 ca         1 UNL      -0.033600
     24 H8          -8.5020    45.5900    35.8590 ha         1 UNL       0.063800
     25 C12        -10.4960    46.2570    35.1340 ca         1 UNL       0.105300
     26 C13        -11.5720    47.2770    35.2400 ca         1 UNL      -0.033600
     27 H9         -12.4470    47.2200    34.5930 ha         1 UNL       0.063800
     28 C14        -11.4480    48.3620    36.2220 ca         1 UNL      -0.038700
     29 H10        -12.2320    49.1130    36.3150 ha         1 UNL       0.063700
     30 S          -10.4970    45.1020    33.8130 sy         1 UNL       0.058200
     31 O1          -9.4930    45.5150    32.8900 o          1 UNL      -0.153100
     32 O2         -11.8370    44.9790    33.3220 o          1 UNL      -0.153100
     33 N2         -10.1440    43.5980    34.3930 n3         1 UNL      -0.193000
     34 H11        -10.8760    42.8870    34.2540 hn         1 UNL       0.147700
     35 C15         -8.9430    43.1360    35.0740 c3         1 UNL       0.005900
     36 H12         -9.0400    43.2290    36.1670 h1         1 UNL       0.040500
     37 H13         -8.7260    42.0790    34.8360 h1         1 UNL       0.040500
     38 H14         -8.0930    43.7340    34.7220 h1         1 UNL       0.040500
@<TRIPOS>BOND
     1     1     3 1   
     2     1    13 1   
     3     1     2 1   
     4     3     4 1   
     5     3    15 2   
     6     4    14 1   
     7     4    16 2   
     8     5     7 ar  
     9     5    14 ar  
    10     5     6 1   
    11     7     9 ar  
    12     7     8 1   
    13     9    11 ar  
    14     9    10 1   
    15    11    13 ar  
    16    11    12 1   
    17    13    14 ar  
    18    16    18 1   
    19    16    17 1   
    20    18    20 1   
    21    18    19 1   
    22    20    21 ar  
    23    20    28 ar  
    24    21    23 ar  
    25    21    22 1   
    26    23    25 ar  
    27    23    24 1   
    28    25    26 ar  
    29    25    30 1   
    30    26    28 ar  
    31    26    27 1   
    32    28    29 1   
    33    30    31 2   
    34    30    32 2   
    35    30    33 1   
    36    33    35 1   
    37    33    34 1   
    38    35    36 1   
    39    35    37 1   
    40    35    38 1   
@<TRIPOS>SUBSTRUCTURE
     1 UNL         1 TEMP              0 ****  ****    0 ROOT
