@<TRIPOS>MOLECULE
MOL
   51    50     1     0     0
SMALL
No Charge or Current Charge


@<TRIPOS>ATOM
      1 N1          46.9840    71.3740    59.7220 n          1 MOL       0.000000
      2 H1          46.0260    71.4430    60.0960 hn         1 MOL       0.000000
      3 C1          47.2010    71.7850    58.4540 c          1 MOL       0.000000
      4 O1          48.3290    71.7440    57.9060 o          1 MOL       0.000000
      5 C2          48.0600    70.8170    60.6270 c3         1 MOL       0.000000
      6 C3          48.6130    71.9230    61.6660 c3         1 MOL       0.000000
      7 C4          47.4890    72.9130    62.0730 c3         1 MOL       0.000000
      8 C5          49.1490    71.3110    63.0180 c3         1 MOL       0.000000
      9 C6          49.8120    72.7560    61.0700 c3         1 MOL       0.000000
     10 C7          47.4500    69.5110    61.3080 c          1 MOL       0.000000
     11 O2          46.5750    69.5900    62.1980 o          1 MOL       0.000000
     12 N2          47.9530    68.3380    60.8330 n          1 MOL       0.000000
     13 C8          47.5400    66.9960    61.3060 c3         1 MOL       0.000000
     14 H2          48.6700    68.3870    60.0950 hn         1 MOL       0.000000
     15 C9          45.9790    72.3340    57.6600 c3         1 MOL       0.000000
     16 C10         44.7590    71.4550    58.1260 c3         1 MOL       0.000000
     17 N3          44.6220    70.2070    57.3810 n          1 MOL       0.000000
     18 O3          44.3710    70.3020    56.1270 oh         1 MOL       0.000000
     19 C11         44.7280    68.9930    57.9260 c          1 MOL       0.000000
     20 O4          45.4110    68.7370    58.8590 o          1 MOL       0.000000
     21 C12         45.7040    73.8650    57.9550 c3         1 MOL       0.000000
     22 C13         46.5040    74.9570    57.2040 c3         1 MOL       0.000000
     23 C14         47.7960    75.3070    57.9770 c3         1 MOL       0.000000
     24 C15         46.9810    74.3990    55.8750 c3         1 MOL       0.000000
     25 H3          48.9360    70.5440    60.0770 h1         1 MOL       0.000000
     26 H4          47.0790    73.3670    61.1950 hc         1 MOL       0.000000
     27 H5          47.8950    73.6710    62.7100 hc         1 MOL       0.000000
     28 H6          46.7190    72.3840    62.5940 hc         1 MOL       0.000000
     29 H7          49.9330    70.6140    62.8080 hc         1 MOL       0.000000
     30 H8          48.3510    70.8080    63.5230 hc         1 MOL       0.000000
     31 H9          49.5270    72.0960    63.6400 hc         1 MOL       0.000000
     32 H10         49.5120    73.2010    60.1450 hc         1 MOL       0.000000
     33 H11         50.6470    72.1080    60.9000 hc         1 MOL       0.000000
     34 H12         50.0910    73.5240    61.7610 hc         1 MOL       0.000000
     35 H13         48.0860    66.2460    60.7720 h1         1 MOL       0.000000
     36 H14         46.4920    66.8640    61.1350 h1         1 MOL       0.000000
     37 H15         47.7440    66.9080    62.3530 h1         1 MOL       0.000000
     38 H16         46.1530    72.2740    56.6060 hc         1 MOL       0.000000
     39 H17         44.8880    71.2190    59.1620 h1         1 MOL       0.000000
     40 H18         43.8730    72.0270    57.9470 h1         1 MOL       0.000000
     41 H19         44.3030    69.4140    55.7430 ho         1 MOL       0.000000
     42 H20         44.1780    68.2270    57.5070 h5         1 MOL       0.000000
     43 H21         44.6700    74.0390    57.7420 hc         1 MOL       0.000000
     44 H22         46.0250    73.9800    58.9690 hc         1 MOL       0.000000
     45 H23         45.8670    75.8090    57.0930 hc         1 MOL       0.000000
     46 H24         48.4060    74.4320    58.0670 hc         1 MOL       0.000000
     47 H25         47.5420    75.6670    58.9520 hc         1 MOL       0.000000
     48 H26         48.3350    76.0640    57.4470 hc         1 MOL       0.000000
     49 H27         47.6120    73.5520    56.0490 hc         1 MOL       0.000000
     50 H28         47.5310    75.1510    55.3490 hc         1 MOL       0.000000
     51 H29         46.1360    74.1000    55.2900 hc         1 MOL       0.000000
@<TRIPOS>BOND
     1     1     2 1   
     2     1     5 1   
     3     3     1 1   
     4     4     3 2   
     5     5    10 1   
     6     5     6 1   
     7     5    25 1   
     8     6     7 1   
     9     6     8 1   
    10     7    26 1   
    11     7    27 1   
    12     7    28 1   
    13     8    29 1   
    14     8    30 1   
    15     8    31 1   
    16     9     6 1   
    17     9    32 1   
    18     9    33 1   
    19     9    34 1   
    20    10    11 2   
    21    12    13 1   
    22    12    10 1   
    23    13    35 1   
    24    13    36 1   
    25    13    37 1   
    26    14    12 1   
    27    15    21 1   
    28    15    16 1   
    29    15     3 1   
    30    15    38 1   
    31    16    39 1   
    32    16    40 1   
    33    17    19 1   
    34    17    16 1   
    35    18    17 1   
    36    18    41 1   
    37    19    20 2   
    38    19    42 1   
    39    21    43 1   
    40    21    44 1   
    41    22    21 1   
    42    22    23 1   
    43    22    45 1   
    44    23    46 1   
    45    23    47 1   
    46    23    48 1   
    47    24    22 1   
    48    24    49 1   
    49    24    50 1   
    50    24    51 1   
@<TRIPOS>SUBSTRUCTURE
     1 MOL         1 TEMP              0 ****  ****    0 ROOT
