@<TRIPOS>MOLECULE
LIGAND
   48    51     1     0     0
SMALL
No Charge or Current Charge


@<TRIPOS>ATOM
      1 O           13.6340    27.3160     2.8270 o          1 UNL      -0.292700
      2 C           13.0950    26.6900     3.6740 c          1 UNL       0.156100
      3 C1          11.5840    26.5160     3.7250 c3         1 UNL       0.010400
      4 H           11.3190    25.6310     3.1260 hc         1 UNL       0.034500
      5 H1          11.1960    27.4180     3.2330 hc         1 UNL       0.034500
      6 C2          13.9840    26.0000     4.6460 ce         1 UNL      -0.019700
      7 H2          15.0780    25.9510     4.5130 ha         1 UNL       0.065200
      8 C3          13.3030    25.3140     5.7080 c2         1 UNL      -0.062900
      9 C4          14.2420    24.5200     6.6480 c3         1 UNL      -0.030800
     10 H3          15.2770    24.8720     6.5170 hc         1 UNL       0.031000
     11 H4          14.2340    23.4670     6.3080 hc         1 UNL       0.031000
     12 C5          11.9310    25.3170     6.0270 c3         1 UNL      -0.016000
     13 H5          11.5710    24.3540     5.5910 hc         1 UNL       0.034900
     14 C6          11.1140    26.3650     5.2110 c3         1 UNL      -0.039200
     15 H6          10.0420    26.1040     5.2030 hc         1 UNL       0.027500
     16 H7          11.1920    27.3570     5.6920 hc         1 UNL       0.027500
     17 C7          11.5690    25.2100     7.4190 c3         1 UNL      -0.031400
     18 H8          11.8760    26.2300     7.7660 hc         1 UNL       0.030900
     19 C8          12.3050    24.4370     8.3560 c3         1 UNL      -0.033900
     20 H9          12.1280    23.4010     7.9830 hc         1 UNL       0.030700
     21 C9          13.8460    24.5280     8.1510 c3         1 UNL      -0.046000
     22 H10         14.2210    25.4620     8.6070 hc         1 UNL       0.027100
     23 H11         14.3610    23.7020     8.6720 hc         1 UNL       0.027100
     24 C10         10.0550    25.3520     7.7300 c3         1 UNL      -0.048800
     25 H12          9.4920    24.5290     7.2550 hc         1 UNL       0.026800
     26 H13          9.6490    26.2850     7.3020 hc         1 UNL       0.026800
     27 C11          9.7310    25.3670     9.2480 c3         1 UNL      -0.043500
     28 H14          8.6340    25.3340     9.3800 hc         1 UNL       0.027200
     29 H15         10.0300    26.3650     9.6200 hc         1 UNL       0.027200
     30 C12         10.4130    24.2660    10.0830 c3         1 UNL       0.011100
     31 C13         11.8900    24.3280     9.7230 c3         1 UNL      -0.028900
     32 H16         12.1340    25.3690    10.0510 hc         1 UNL       0.031000
     33 C14          9.8450    22.8630     9.6540 c3         1 UNL      -0.055800
     34 H17         10.3530    22.0310    10.1690 hc         1 UNL       0.023600
     35 H18          8.7690    22.7810     9.8830 hc         1 UNL       0.023600
     36 H19          9.9580    22.6850     8.5730 hc         1 UNL       0.023600
     37 C15         10.4240    24.3410    11.6060 c3         1 UNL       0.131700
     38 O1           9.2540    23.8750    12.2860 oh         1 UNL      -0.376000
     39 H20          8.6200    24.6030    12.2460 ho         1 UNL       0.211400
     40 C16         11.6680    23.5360    12.0170 c3         1 UNL      -0.011800
     41 H21         11.3690    22.4920    12.2090 hc         1 UNL       0.030300
     42 H22         12.1270    23.8810    12.9590 hc         1 UNL       0.030300
     43 C17         12.6380    23.5840    10.8150 c3         1 UNL      -0.045800
     44 H23         13.5870    24.0830    11.0700 hc         1 UNL       0.026900
     45 H24         12.9100    22.5580    10.5160 hc         1 UNL       0.026900
     46 C18         10.6670    25.7460    12.0480 c1         1 UNL      -0.070400
     47 C19         10.9800    26.8940    12.5100 c1         1 UNL      -0.116300
     48 H25         11.2580    27.8550    12.8830 ha         1 UNL       0.122900
@<TRIPOS>BOND
     1     1     2 2   
     2     2     3 1   
     3     2     6 1   
     4     3    14 1   
     5     3     4 1   
     6     3     5 1   
     7     6     8 2   
     8     6     7 1   
     9     8     9 1   
    10     8    12 1   
    11     9    21 1   
    12     9    10 1   
    13     9    11 1   
    14    12    14 1   
    15    12    17 1   
    16    12    13 1   
    17    14    15 1   
    18    14    16 1   
    19    17    19 1   
    20    17    24 1   
    21    17    18 1   
    22    19    21 1   
    23    19    31 1   
    24    19    20 1   
    25    21    22 1   
    26    21    23 1   
    27    24    27 1   
    28    24    25 1   
    29    24    26 1   
    30    27    30 1   
    31    27    28 1   
    32    27    29 1   
    33    30    31 1   
    34    30    33 1   
    35    30    37 1   
    36    31    43 1   
    37    31    32 1   
    38    33    34 1   
    39    33    35 1   
    40    33    36 1   
    41    37    38 1   
    42    37    40 1   
    43    37    46 1   
    44    38    39 1   
    45    40    43 1   
    46    40    41 1   
    47    40    42 1   
    48    43    44 1   
    49    43    45 1   
    50    46    47 3   
    51    47    48 1   
@<TRIPOS>SUBSTRUCTURE
     1 UNL         1 TEMP              0 ****  ****    0 ROOT
